*SPEF "ieee 1481-1999"
*DESIGN "MS_CLK_RST"
*DATE "11:11:11 Fri 11 11, 1111"
*VENDOR "OpenRCX"
*PROGRAM "Parallel Extraction"
*VERSION "1.0"
*DESIGN_FLOW "NAME_SCOPE LOCAL" "PIN_CAP NONE"
*DIVIDER /
*DELIMITER :
*BUS_DELIMITER []
*T_UNIT 1 NS
*C_UNIT 1 PF
*R_UNIT 1 OHM
*L_UNIT 1 HENRY

*NAME_MAP
*1 clk
*2 clk_div[0]
*3 clk_div[1]
*4 one
*5 por_fb_in
*6 por_fb_out
*7 por_n
*8 rst_n
*9 sel_mux0
*10 sel_mux1
*11 sel_mux2
*12 sel_rosc[0]
*13 sel_rosc[1]
*16 xclk0
*17 xclk1
*18 xrst_n
*19 zero
*20 CLKMUX\.clk1
*21 CLKMUX\.clk2
*22 CLKMUX\.clk3
*23 CLKMUX\.clko
*24 CLKMUX\.clko1
*25 CLKMUX\.m1\.Q1a
*26 CLKMUX\.m1\.Q1b
*27 CLKMUX\.m1\.Q2a
*28 CLKMUX\.m1\.Q2b
*29 CLKMUX\.m1\.q1a_in
*30 CLKMUX\.m1\.q2a_in
*31 CLKMUX\.m2\.Q1a
*32 CLKMUX\.m2\.Q1b
*33 CLKMUX\.m2\.Q2a
*34 CLKMUX\.m2\.Q2b
*35 CLKMUX\.m2\.q1a_in
*36 CLKMUX\.m2\.q2a_in
*37 CLKMUX\.m3\.Q1a
*38 CLKMUX\.m3\.Q1b
*39 CLKMUX\.m3\.Q2a
*40 CLKMUX\.m3\.Q2b
*41 CLKMUX\.m3\.q1a_in
*42 CLKMUX\.m3\.q2a_in
*43 CLKMUX0\.Q1a
*44 CLKMUX0\.Q1b
*45 CLKMUX0\.Q2a
*46 CLKMUX0\.Q2b
*47 CLKMUX0\.q1a_in
*48 CLKMUX0\.q2a_in
*49 CLKMUX1\.Q1a
*50 CLKMUX1\.Q1b
*51 CLKMUX1\.Q2a
*52 CLKMUX1\.Q2b
*53 CLKMUX1\.clk1
*54 CLKMUX1\.q1a_in
*55 CLKMUX1\.q2a_in
*56 CLKMUX2\.Q1a
*57 CLKMUX2\.Q1b
*58 CLKMUX2\.Q2a
*59 CLKMUX2\.Q2b
*60 CLKMUX2\.q1a_in
*61 CLKMUX2\.q2a_in
*62 PoR\.CLKMUX\.clk0
*63 PoR\.CLKMUX\.m1\.Q1a
*64 PoR\.CLKMUX\.m1\.Q1b
*65 PoR\.CLKMUX\.m1\.Q2a
*66 PoR\.CLKMUX\.m1\.Q2b
*67 PoR\.CLKMUX\.m1\.q1a_in
*68 PoR\.CLKMUX\.m1\.q2a_in
*69 PoR\.CLKMUX\.m2\.Q1a
*70 PoR\.CLKMUX\.m2\.Q1b
*71 PoR\.CLKMUX\.m2\.Q2a
*72 PoR\.CLKMUX\.m2\.Q2b
*73 PoR\.CLKMUX\.m2\.q1a_in
*74 PoR\.CLKMUX\.m2\.q2a_in
*75 PoR\.CLKMUX\.m3\.Q1a
*76 PoR\.CLKMUX\.m3\.Q1b
*77 PoR\.CLKMUX\.m3\.Q2a
*78 PoR\.CLKMUX\.m3\.Q2b
*79 PoR\.CLKMUX\.m3\.q1a_in
*80 PoR\.CLKMUX\.m3\.q2a_in
*81 PoR\.ROSC_DLYINV_0\.Y
*82 PoR\.ROSC_DLYINV_0\.clkinv_out
*83 PoR\.ROSC_DLYINV_1\.Y
*84 PoR\.ROSC_DLYINV_1\.clkinv_out
*85 PoR\.ROSC_DLYINV_2\.Y
*86 PoR\.ROSC_DLYINV_2\.clkinv_out
*87 PoR\.ROSC_DLYINV_3\.Y
*88 PoR\.ROSC_DLYINV_3\.clkinv_out
*89 PoR\.ROSC_DLYINV_4\.Y
*90 PoR\.ROSC_DLYINV_4\.clkinv_out
*91 PoR\.ROSC_DLYINV_5\.Y
*92 PoR\.ROSC_DLYINV_5\.clkinv_out
*93 PoR\.clk_div\[1\]
*94 PoR\.clk_div\[2\]
*95 PoR\.clk_div\[3\]
*96 PoR\.clk_div\[4\]
*97 PoR\.clk_div\[5\]
*98 PoR\.clk_div\[6\]
*99 PoR\.clk_div\[7\]
*100 PoR\.clk_div\[8\]
*101 PoR\.cmp0
*102 PoR\.cmp1
*103 PoR\.cmp2
*104 PoR\.cmp3
*105 PoR\.dly\[7\]
*106 PoR\.dly\[8\]
*107 PoR\.shift_reg0\[0\]
*108 PoR\.shift_reg0\[10\]
*109 PoR\.shift_reg0\[11\]
*110 PoR\.shift_reg0\[12\]
*111 PoR\.shift_reg0\[13\]
*112 PoR\.shift_reg0\[14\]
*113 PoR\.shift_reg0\[15\]
*114 PoR\.shift_reg0\[1\]
*115 PoR\.shift_reg0\[2\]
*116 PoR\.shift_reg0\[3\]
*117 PoR\.shift_reg0\[4\]
*118 PoR\.shift_reg0\[5\]
*119 PoR\.shift_reg0\[6\]
*120 PoR\.shift_reg0\[7\]
*121 PoR\.shift_reg0\[8\]
*122 PoR\.shift_reg0\[9\]
*123 PoR\.shift_reg1\[0\]
*124 PoR\.shift_reg1\[10\]
*125 PoR\.shift_reg1\[11\]
*126 PoR\.shift_reg1\[12\]
*127 PoR\.shift_reg1\[13\]
*128 PoR\.shift_reg1\[14\]
*129 PoR\.shift_reg1\[15\]
*130 PoR\.shift_reg1\[1\]
*131 PoR\.shift_reg1\[2\]
*132 PoR\.shift_reg1\[3\]
*133 PoR\.shift_reg1\[4\]
*134 PoR\.shift_reg1\[5\]
*135 PoR\.shift_reg1\[6\]
*136 PoR\.shift_reg1\[7\]
*137 PoR\.shift_reg1\[8\]
*138 PoR\.shift_reg1\[9\]
*139 PoR\.shift_reg2\[0\]
*140 PoR\.shift_reg2\[10\]
*141 PoR\.shift_reg2\[11\]
*142 PoR\.shift_reg2\[12\]
*143 PoR\.shift_reg2\[13\]
*144 PoR\.shift_reg2\[14\]
*145 PoR\.shift_reg2\[15\]
*146 PoR\.shift_reg2\[1\]
*147 PoR\.shift_reg2\[2\]
*148 PoR\.shift_reg2\[3\]
*149 PoR\.shift_reg2\[4\]
*150 PoR\.shift_reg2\[5\]
*151 PoR\.shift_reg2\[6\]
*152 PoR\.shift_reg2\[7\]
*153 PoR\.shift_reg2\[8\]
*154 PoR\.shift_reg2\[9\]
*155 PoR\.shift_reg3\[0\]
*156 PoR\.shift_reg3\[10\]
*157 PoR\.shift_reg3\[11\]
*158 PoR\.shift_reg3\[12\]
*159 PoR\.shift_reg3\[13\]
*160 PoR\.shift_reg3\[14\]
*161 PoR\.shift_reg3\[15\]
*162 PoR\.shift_reg3\[1\]
*163 PoR\.shift_reg3\[2\]
*164 PoR\.shift_reg3\[3\]
*165 PoR\.shift_reg3\[4\]
*166 PoR\.shift_reg3\[5\]
*167 PoR\.shift_reg3\[6\]
*168 PoR\.shift_reg3\[7\]
*169 PoR\.shift_reg3\[8\]
*170 PoR\.shift_reg3\[9\]
*171 RST_SYNC\.rst_sync\[0\]
*172 RST_SYNC\.rst_sync\[1\]
*173 RST_SYNC\.rst_sync\[2\]
*174 _000_
*175 _001_
*176 _002_
*177 _003_
*178 _004_
*179 _005_
*180 _006_
*181 _007_
*182 _008_
*183 _009_
*184 _010_
*185 _011_
*186 _012_
*187 _013_
*188 _014_
*189 _015_
*190 _016_
*191 _017_
*192 _018_
*193 _019_
*194 _020_
*195 _021_
*196 _022_
*197 _023_
*198 _024_
*199 _025_
*200 _026_
*201 _027_
*202 _028_
*203 _029_
*204 _030_
*205 _031_
*206 _032_
*207 _033_
*208 _034_
*209 _035_
*210 _036_
*211 _037_
*212 _038_
*213 _039_
*214 _040_
*215 _041_
*216 _042_
*217 _043_
*218 _044_
*219 _045_
*220 _046_
*221 _047_
*222 _048_
*223 _049_
*224 _050_
*225 _051_
*226 _052_
*227 _053_
*228 _054_
*229 _055_
*230 _056_
*231 _057_
*232 _058_
*233 _059_
*234 _060_
*235 _061_
*236 _062_
*237 _063_
*238 _064_
*239 _065_
*240 _066_
*241 _067_
*242 _068_
*243 _069_
*244 _070_
*245 _071_
*246 _072_
*247 _073_
*248 _074_
*249 _075_
*250 _076_
*251 _077_
*252 _078_
*253 _079_
*254 _080_
*255 _081_
*256 _082_
*257 _083_
*258 _084_
*259 _085_
*260 _086_
*261 _087_
*262 _088_
*263 _089_
*264 _090_
*265 _091_
*266 _092_
*267 _093_
*268 _094_
*269 _095_
*270 _096_
*271 _097_
*272 _098_
*273 _099_
*274 _100_
*275 _101_
*276 _102_
*277 _103_
*278 _104_
*279 _105_
*280 _106_
*281 _107_
*282 _108_
*283 _109_
*284 _110_
*285 _111_
*286 _112_
*287 _113_
*288 _114_
*289 _115_
*290 _116_
*291 _117_
*292 _118_
*293 _119_
*294 _120_
*295 _121_
*296 _122_
*297 _123_
*298 _124_
*299 _125_
*300 _126_
*301 _127_
*302 _128_
*303 _129_
*304 _130_
*305 _131_
*306 _132_
*307 _133_
*308 _134_
*309 _135_
*310 _136_
*311 _137_
*312 _138_
*313 _139_
*314 _140_
*315 _141_
*316 _142_
*317 _143_
*318 _144_
*319 _145_
*320 _146_
*321 _147_
*322 _148_
*323 _149_
*324 _150_
*325 _151_
*326 _152_
*327 _153_
*328 _154_
*329 _155_
*330 _156_
*331 _157_
*332 _158_
*333 _159_
*334 _160_
*335 _161_
*336 _162_
*337 _163_
*338 _164_
*339 _165_
*340 en_xclk_cntr
*341 mon_cntr\[0\]
*342 mon_cntr\[1\]
*343 mon_cntr\[2\]
*344 mon_cntr\[3\]
*345 mon_cntr\[4\]
*346 mon_cntr\[5\]
*347 mon_cntr\[6\]
*348 mon_cntr\[7\]
*349 net1
*350 net10
*351 net11
*352 net12
*353 net13
*354 net14
*355 net15
*356 net16
*357 net17
*358 net18
*359 net19
*360 net2
*361 net20
*362 net21
*363 net22
*364 net24
*365 net27
*366 net3
*367 net31
*368 net4
*369 net5
*370 net6
*371 net7
*372 net8
*373 net9
*374 xclk_cntr\[0\]
*375 xclk_cntr\[1\]
*376 xclk_cntr\[2\]
*377 xclk_cntr\[3\]
*378 xclk_cntr\[4\]
*379 xclk_cntr\[5\]
*380 xclk_cntr\[6\]
*381 xclk_cntr\[7\]
*382 xclk_cntr\[8\]
*383 xclk_mon_rst_n
*384 xclk_sync\[0\]
*385 xclk_sync\[1\]
*386 xclk_sync\[2\]
*387 ANTENNA__222__A1
*388 ANTENNA__307__A
*389 ANTENNA__325__A
*390 ANTENNA__361__CLK
*391 ANTENNA__362__CLK
*392 ANTENNA__363__CLK
*393 ANTENNA__364__CLK
*394 ANTENNA__365__CLK
*395 ANTENNA__366__CLK
*396 ANTENNA__367__CLK
*397 ANTENNA__368__CLK
*398 ANTENNA__369__CLK
*399 ANTENNA__370__CLK
*400 ANTENNA__371__CLK
*401 ANTENNA__372__CLK
*402 ANTENNA__373__CLK
*403 ANTENNA__396__CLK
*404 ANTENNA__404__CLK
*405 ANTENNA__405__CLK
*406 ANTENNA__406__CLK
*407 ANTENNA__407__CLK
*408 ANTENNA__408__CLK
*409 ANTENNA__409__CLK
*410 ANTENNA__410__CLK
*411 ANTENNA__411__CLK
*412 ANTENNA__412__CLK
*413 ANTENNA__417__CLK
*414 ANTENNA__418__CLK
*415 ANTENNA__419__CLK
*416 ANTENNA__420__CLK
*417 ANTENNA__421__CLK
*418 ANTENNA__422__CLK
*419 ANTENNA__423__CLK
*420 ANTENNA__424__CLK
*421 ANTENNA__425__CLK
*422 ANTENNA__426__CLK
*423 ANTENNA__427__CLK
*424 ANTENNA__428__CLK
*425 ANTENNA__429__CLK
*426 ANTENNA__430__CLK
*427 ANTENNA__431__CLK
*428 ANTENNA__432__CLK
*429 ANTENNA__433__CLK
*430 ANTENNA__434__CLK
*431 ANTENNA__435__CLK
*432 ANTENNA__436__CLK
*433 ANTENNA__437__CLK
*434 ANTENNA__438__CLK
*435 ANTENNA__439__CLK
*436 ANTENNA__440__CLK
*437 ANTENNA__441__CLK
*438 ANTENNA__442__CLK
*439 ANTENNA__443__CLK
*440 ANTENNA__444__CLK
*441 ANTENNA__445__CLK
*442 ANTENNA__446__CLK
*443 ANTENNA__447__CLK
*444 ANTENNA__448__CLK
*445 ANTENNA__449__CLK
*446 ANTENNA__450__CLK
*447 ANTENNA__451__CLK
*448 ANTENNA__452__CLK
*449 ANTENNA__453__CLK
*450 ANTENNA__454__CLK
*451 ANTENNA__455__CLK
*452 ANTENNA__456__CLK
*453 ANTENNA__457__CLK
*454 ANTENNA__458__CLK
*455 ANTENNA__459__CLK
*456 ANTENNA__460__CLK
*457 ANTENNA__461__CLK
*458 ANTENNA__462__CLK
*459 ANTENNA__463__CLK
*460 ANTENNA__464__CLK
*461 ANTENNA__465__CLK
*462 ANTENNA__466__CLK
*463 ANTENNA__467__CLK
*464 ANTENNA__468__CLK
*465 ANTENNA__469__CLK
*466 ANTENNA__470__CLK
*467 ANTENNA__471__CLK
*468 ANTENNA__472__CLK
*469 ANTENNA__473__CLK
*470 ANTENNA__474__CLK
*471 ANTENNA__475__CLK
*472 ANTENNA__476__CLK
*473 ANTENNA__477__CLK
*474 ANTENNA__478__CLK
*475 ANTENNA__479__CLK
*476 ANTENNA__480__CLK
*477 ANTENNA__481__CLK
*478 ANTENNA__482__CLK
*479 ANTENNA__483__CLK
*480 ANTENNA__484__CLK
*481 ANTENNA__485__CLK
*482 ANTENNA__486__CLK
*483 ANTENNA__487__CLK
*484 ANTENNA__488__CLK
*485 FILLER_0_0_111
*486 FILLER_0_0_113
*487 FILLER_0_0_121
*488 FILLER_0_0_126
*489 FILLER_0_0_130
*490 FILLER_0_0_138
*491 FILLER_0_0_141
*492 FILLER_0_0_15
*493 FILLER_0_0_153
*494 FILLER_0_0_161
*495 FILLER_0_0_167
*496 FILLER_0_0_169
*497 FILLER_0_0_181
*498 FILLER_0_0_193
*499 FILLER_0_0_197
*500 FILLER_0_0_209
*501 FILLER_0_0_27
*502 FILLER_0_0_29
*503 FILLER_0_0_3
*504 FILLER_0_0_41
*505 FILLER_0_0_48
*506 FILLER_0_0_57
*507 FILLER_0_0_69
*508 FILLER_0_0_81
*509 FILLER_0_0_85
*510 FILLER_0_0_97
*511 FILLER_0_10_105
*512 FILLER_0_10_114
*513 FILLER_0_10_139
*514 FILLER_0_10_141
*515 FILLER_0_10_145
*516 FILLER_0_10_165
*517 FILLER_0_10_175
*518 FILLER_0_10_210
*519 FILLER_0_10_3
*520 FILLER_0_10_59
*521 FILLER_0_10_7
*522 FILLER_0_10_73
*523 FILLER_0_11_100
*524 FILLER_0_11_113
*525 FILLER_0_11_158
*526 FILLER_0_11_16
*527 FILLER_0_11_162
*528 FILLER_0_11_174
*529 FILLER_0_11_180
*530 FILLER_0_11_199
*531 FILLER_0_11_24
*532 FILLER_0_11_29
*533 FILLER_0_11_55
*534 FILLER_0_11_57
*535 FILLER_0_11_78
*536 FILLER_0_11_94
*537 FILLER_0_12_123
*538 FILLER_0_12_135
*539 FILLER_0_12_14
*540 FILLER_0_12_175
*541 FILLER_0_12_182
*542 FILLER_0_12_186
*543 FILLER_0_12_197
*544 FILLER_0_12_209
*545 FILLER_0_12_26
*546 FILLER_0_12_29
*547 FILLER_0_12_3
*548 FILLER_0_12_43
*549 FILLER_0_12_55
*550 FILLER_0_12_58
*551 FILLER_0_12_62
*552 FILLER_0_12_69
*553 FILLER_0_12_74
*554 FILLER_0_12_85
*555 FILLER_0_12_97
*556 FILLER_0_13_101
*557 FILLER_0_13_109
*558 FILLER_0_13_113
*559 FILLER_0_13_125
*560 FILLER_0_13_13
*561 FILLER_0_13_137
*562 FILLER_0_13_149
*563 FILLER_0_13_155
*564 FILLER_0_13_158
*565 FILLER_0_13_166
*566 FILLER_0_13_169
*567 FILLER_0_13_17
*568 FILLER_0_13_182
*569 FILLER_0_13_206
*570 FILLER_0_13_210
*571 FILLER_0_13_25
*572 FILLER_0_13_3
*573 FILLER_0_13_30
*574 FILLER_0_13_42
*575 FILLER_0_13_60
*576 FILLER_0_13_64
*577 FILLER_0_14_118
*578 FILLER_0_14_130
*579 FILLER_0_14_133
*580 FILLER_0_14_137
*581 FILLER_0_14_158
*582 FILLER_0_14_194
*583 FILLER_0_14_197
*584 FILLER_0_14_3
*585 FILLER_0_14_38
*586 FILLER_0_14_55
*587 FILLER_0_14_76
*588 FILLER_0_14_94
*589 FILLER_0_15_110
*590 FILLER_0_15_167
*591 FILLER_0_15_169
*592 FILLER_0_15_207
*593 FILLER_0_15_3
*594 FILLER_0_15_64
*595 FILLER_0_15_68
*596 FILLER_0_15_92
*597 FILLER_0_16_115
*598 FILLER_0_16_119
*599 FILLER_0_16_141
*600 FILLER_0_16_149
*601 FILLER_0_16_170
*602 FILLER_0_16_182
*603 FILLER_0_16_192
*604 FILLER_0_16_197
*605 FILLER_0_16_20
*606 FILLER_0_16_209
*607 FILLER_0_16_29
*608 FILLER_0_16_3
*609 FILLER_0_16_62
*610 FILLER_0_16_74
*611 FILLER_0_16_81
*612 FILLER_0_16_98
*613 FILLER_0_17_105
*614 FILLER_0_17_111
*615 FILLER_0_17_113
*616 FILLER_0_17_125
*617 FILLER_0_17_137
*618 FILLER_0_17_144
*619 FILLER_0_17_16
*620 FILLER_0_17_166
*621 FILLER_0_17_169
*622 FILLER_0_17_173
*623 FILLER_0_17_189
*624 FILLER_0_17_209
*625 FILLER_0_17_28
*626 FILLER_0_17_36
*627 FILLER_0_17_48
*628 FILLER_0_17_57
*629 FILLER_0_17_6
*630 FILLER_0_17_69
*631 FILLER_0_17_81
*632 FILLER_0_17_93
*633 FILLER_0_18_105
*634 FILLER_0_18_112
*635 FILLER_0_18_120
*636 FILLER_0_18_148
*637 FILLER_0_18_170
*638 FILLER_0_18_195
*639 FILLER_0_18_197
*640 FILLER_0_18_209
*641 FILLER_0_18_3
*642 FILLER_0_18_32
*643 FILLER_0_18_41
*644 FILLER_0_18_53
*645 FILLER_0_18_65
*646 FILLER_0_18_7
*647 FILLER_0_18_77
*648 FILLER_0_18_81
*649 FILLER_0_18_88
*650 FILLER_0_18_97
*651 FILLER_0_19_15
*652 FILLER_0_19_150
*653 FILLER_0_19_154
*654 FILLER_0_19_164
*655 FILLER_0_19_169
*656 FILLER_0_19_173
*657 FILLER_0_19_200
*658 FILLER_0_19_208
*659 FILLER_0_19_3
*660 FILLER_0_19_57
*661 FILLER_0_19_61
*662 FILLER_0_19_69
*663 FILLER_0_1_105
*664 FILLER_0_1_111
*665 FILLER_0_1_121
*666 FILLER_0_1_15
*667 FILLER_0_1_162
*668 FILLER_0_1_169
*669 FILLER_0_1_181
*670 FILLER_0_1_193
*671 FILLER_0_1_205
*672 FILLER_0_1_23
*673 FILLER_0_1_3
*674 FILLER_0_1_46
*675 FILLER_0_1_54
*676 FILLER_0_1_57
*677 FILLER_0_1_69
*678 FILLER_0_1_75
*679 FILLER_0_1_83
*680 FILLER_0_20_113
*681 FILLER_0_20_125
*682 FILLER_0_20_133
*683 FILLER_0_20_137
*684 FILLER_0_20_175
*685 FILLER_0_20_197
*686 FILLER_0_20_209
*687 FILLER_0_20_23
*688 FILLER_0_20_29
*689 FILLER_0_21_100
*690 FILLER_0_21_110
*691 FILLER_0_21_113
*692 FILLER_0_21_125
*693 FILLER_0_21_13
*694 FILLER_0_21_137
*695 FILLER_0_21_166
*696 FILLER_0_21_186
*697 FILLER_0_21_208
*698 FILLER_0_21_25
*699 FILLER_0_21_3
*700 FILLER_0_21_37
*701 FILLER_0_21_49
*702 FILLER_0_21_55
*703 FILLER_0_21_57
*704 FILLER_0_21_68
*705 FILLER_0_21_80
*706 FILLER_0_21_89
*707 FILLER_0_21_9
*708 FILLER_0_21_95
*709 FILLER_0_22_105
*710 FILLER_0_22_132
*711 FILLER_0_22_141
*712 FILLER_0_22_147
*713 FILLER_0_22_167
*714 FILLER_0_22_171
*715 FILLER_0_22_183
*716 FILLER_0_22_195
*717 FILLER_0_22_197
*718 FILLER_0_22_209
*719 FILLER_0_22_23
*720 FILLER_0_22_27
*721 FILLER_0_22_49
*722 FILLER_0_22_57
*723 FILLER_0_22_72
*724 FILLER_0_22_78
*725 FILLER_0_22_81
*726 FILLER_0_22_85
*727 FILLER_0_22_97
*728 FILLER_0_23_101
*729 FILLER_0_23_126
*730 FILLER_0_23_138
*731 FILLER_0_23_160
*732 FILLER_0_23_169
*733 FILLER_0_23_182
*734 FILLER_0_23_205
*735 FILLER_0_23_3
*736 FILLER_0_23_57
*737 FILLER_0_24_108
*738 FILLER_0_24_135
*739 FILLER_0_24_15
*740 FILLER_0_24_163
*741 FILLER_0_24_188
*742 FILLER_0_24_204
*743 FILLER_0_24_27
*744 FILLER_0_24_3
*745 FILLER_0_24_42
*746 FILLER_0_24_54
*747 FILLER_0_24_77
*748 FILLER_0_24_83
*749 FILLER_0_24_85
*750 FILLER_0_25_103
*751 FILLER_0_25_109
*752 FILLER_0_25_11
*753 FILLER_0_25_113
*754 FILLER_0_25_125
*755 FILLER_0_25_169
*756 FILLER_0_25_189
*757 FILLER_0_25_210
*758 FILLER_0_25_23
*759 FILLER_0_25_27
*760 FILLER_0_25_3
*761 FILLER_0_25_39
*762 FILLER_0_25_51
*763 FILLER_0_25_55
*764 FILLER_0_25_57
*765 FILLER_0_25_69
*766 FILLER_0_25_7
*767 FILLER_0_25_81
*768 FILLER_0_25_93
*769 FILLER_0_25_99
*770 FILLER_0_26_123
*771 FILLER_0_26_135
*772 FILLER_0_26_139
*773 FILLER_0_26_141
*774 FILLER_0_26_162
*775 FILLER_0_26_174
*776 FILLER_0_26_197
*777 FILLER_0_26_209
*778 FILLER_0_26_38
*779 FILLER_0_26_46
*780 FILLER_0_26_67
*781 FILLER_0_26_7
*782 FILLER_0_26_79
*783 FILLER_0_26_83
*784 FILLER_0_26_85
*785 FILLER_0_26_97
*786 FILLER_0_27_109
*787 FILLER_0_27_113
*788 FILLER_0_27_121
*789 FILLER_0_27_143
*790 FILLER_0_27_155
*791 FILLER_0_27_159
*792 FILLER_0_27_167
*793 FILLER_0_27_169
*794 FILLER_0_27_173
*795 FILLER_0_27_181
*796 FILLER_0_27_203
*797 FILLER_0_27_3
*798 FILLER_0_27_45
*799 FILLER_0_27_52
*800 FILLER_0_27_57
*801 FILLER_0_27_61
*802 FILLER_0_28_10
*803 FILLER_0_28_103
*804 FILLER_0_28_115
*805 FILLER_0_28_127
*806 FILLER_0_28_135
*807 FILLER_0_28_158
*808 FILLER_0_28_176
*809 FILLER_0_28_18
*810 FILLER_0_28_187
*811 FILLER_0_28_191
*812 FILLER_0_28_195
*813 FILLER_0_28_204
*814 FILLER_0_28_21
*815 FILLER_0_28_210
*816 FILLER_0_28_25
*817 FILLER_0_28_29
*818 FILLER_0_28_72
*819 FILLER_0_28_80
*820 FILLER_0_28_85
*821 FILLER_0_29_107
*822 FILLER_0_29_111
*823 FILLER_0_29_113
*824 FILLER_0_29_119
*825 FILLER_0_29_15
*826 FILLER_0_29_162
*827 FILLER_0_29_203
*828 FILLER_0_29_27
*829 FILLER_0_29_3
*830 FILLER_0_29_42
*831 FILLER_0_29_54
*832 FILLER_0_29_57
*833 FILLER_0_29_65
*834 FILLER_0_29_95
*835 FILLER_0_2_134
*836 FILLER_0_2_141
*837 FILLER_0_2_15
*838 FILLER_0_2_153
*839 FILLER_0_2_165
*840 FILLER_0_2_177
*841 FILLER_0_2_189
*842 FILLER_0_2_195
*843 FILLER_0_2_197
*844 FILLER_0_2_209
*845 FILLER_0_2_27
*846 FILLER_0_2_29
*847 FILLER_0_2_3
*848 FILLER_0_2_54
*849 FILLER_0_2_62
*850 FILLER_0_2_83
*851 FILLER_0_2_93
*852 FILLER_0_2_97
*853 FILLER_0_30_100
*854 FILLER_0_30_108
*855 FILLER_0_30_129
*856 FILLER_0_30_139
*857 FILLER_0_30_148
*858 FILLER_0_30_152
*859 FILLER_0_30_177
*860 FILLER_0_30_190
*861 FILLER_0_30_203
*862 FILLER_0_30_21
*863 FILLER_0_30_27
*864 FILLER_0_30_29
*865 FILLER_0_30_3
*866 FILLER_0_30_44
*867 FILLER_0_30_52
*868 FILLER_0_30_59
*869 FILLER_0_30_63
*870 FILLER_0_30_71
*871 FILLER_0_30_75
*872 FILLER_0_30_83
*873 FILLER_0_30_88
*874 FILLER_0_31_103
*875 FILLER_0_31_130
*876 FILLER_0_31_152
*877 FILLER_0_31_164
*878 FILLER_0_31_169
*879 FILLER_0_31_177
*880 FILLER_0_31_187
*881 FILLER_0_31_191
*882 FILLER_0_31_27
*883 FILLER_0_31_3
*884 FILLER_0_31_74
*885 FILLER_0_31_99
*886 FILLER_0_32_126
*887 FILLER_0_32_130
*888 FILLER_0_32_138
*889 FILLER_0_32_146
*890 FILLER_0_32_15
*891 FILLER_0_32_154
*892 FILLER_0_32_174
*893 FILLER_0_32_197
*894 FILLER_0_32_209
*895 FILLER_0_32_27
*896 FILLER_0_32_29
*897 FILLER_0_32_3
*898 FILLER_0_32_35
*899 FILLER_0_32_47
*900 FILLER_0_32_55
*901 FILLER_0_32_59
*902 FILLER_0_32_68
*903 FILLER_0_32_80
*904 FILLER_0_32_85
*905 FILLER_0_32_97
*906 FILLER_0_33_101
*907 FILLER_0_33_104
*908 FILLER_0_33_15
*909 FILLER_0_33_152
*910 FILLER_0_33_164
*911 FILLER_0_33_203
*912 FILLER_0_33_27
*913 FILLER_0_33_3
*914 FILLER_0_33_33
*915 FILLER_0_33_42
*916 FILLER_0_33_50
*917 FILLER_0_33_81
*918 FILLER_0_33_85
*919 FILLER_0_33_97
*920 FILLER_0_34_102
*921 FILLER_0_34_121
*922 FILLER_0_34_15
*923 FILLER_0_34_158
*924 FILLER_0_34_170
*925 FILLER_0_34_193
*926 FILLER_0_34_197
*927 FILLER_0_34_209
*928 FILLER_0_34_27
*929 FILLER_0_34_29
*930 FILLER_0_34_3
*931 FILLER_0_34_37
*932 FILLER_0_34_44
*933 FILLER_0_34_56
*934 FILLER_0_34_62
*935 FILLER_0_34_71
*936 FILLER_0_34_79
*937 FILLER_0_35_109
*938 FILLER_0_35_113
*939 FILLER_0_35_123
*940 FILLER_0_35_135
*941 FILLER_0_35_15
*942 FILLER_0_35_151
*943 FILLER_0_35_163
*944 FILLER_0_35_167
*945 FILLER_0_35_169
*946 FILLER_0_35_187
*947 FILLER_0_35_191
*948 FILLER_0_35_195
*949 FILLER_0_35_197
*950 FILLER_0_35_205
*951 FILLER_0_35_23
*952 FILLER_0_35_27
*953 FILLER_0_35_29
*954 FILLER_0_35_3
*955 FILLER_0_35_41
*956 FILLER_0_35_53
*957 FILLER_0_35_57
*958 FILLER_0_35_69
*959 FILLER_0_35_81
*960 FILLER_0_35_85
*961 FILLER_0_35_97
*962 FILLER_0_3_105
*963 FILLER_0_3_111
*964 FILLER_0_3_116
*965 FILLER_0_3_127
*966 FILLER_0_3_139
*967 FILLER_0_3_15
*968 FILLER_0_3_151
*969 FILLER_0_3_163
*970 FILLER_0_3_167
*971 FILLER_0_3_169
*972 FILLER_0_3_181
*973 FILLER_0_3_193
*974 FILLER_0_3_205
*975 FILLER_0_3_27
*976 FILLER_0_3_3
*977 FILLER_0_3_39
*978 FILLER_0_3_51
*979 FILLER_0_3_55
*980 FILLER_0_3_57
*981 FILLER_0_3_69
*982 FILLER_0_4_105
*983 FILLER_0_4_117
*984 FILLER_0_4_125
*985 FILLER_0_4_131
*986 FILLER_0_4_136
*987 FILLER_0_4_145
*988 FILLER_0_4_15
*989 FILLER_0_4_157
*990 FILLER_0_4_169
*991 FILLER_0_4_181
*992 FILLER_0_4_193
*993 FILLER_0_4_197
*994 FILLER_0_4_209
*995 FILLER_0_4_27
*996 FILLER_0_4_29
*997 FILLER_0_4_3
*998 FILLER_0_4_35
*999 FILLER_0_4_43
*1000 FILLER_0_4_51
*1001 FILLER_0_4_58
*1002 FILLER_0_4_70
*1003 FILLER_0_4_82
*1004 FILLER_0_4_93
*1005 FILLER_0_5_118
*1006 FILLER_0_5_15
*1007 FILLER_0_5_169
*1008 FILLER_0_5_181
*1009 FILLER_0_5_202
*1010 FILLER_0_5_24
*1011 FILLER_0_5_3
*1012 FILLER_0_5_77
*1013 FILLER_0_5_94
*1014 FILLER_0_6_121
*1015 FILLER_0_6_133
*1016 FILLER_0_6_139
*1017 FILLER_0_6_141
*1018 FILLER_0_6_153
*1019 FILLER_0_6_165
*1020 FILLER_0_6_186
*1021 FILLER_0_6_194
*1022 FILLER_0_6_197
*1023 FILLER_0_6_209
*1024 FILLER_0_6_49
*1025 FILLER_0_6_6
*1026 FILLER_0_6_78
*1027 FILLER_0_6_83
*1028 FILLER_0_6_85
*1029 FILLER_0_6_93
*1030 FILLER_0_7_100
*1031 FILLER_0_7_110
*1032 FILLER_0_7_113
*1033 FILLER_0_7_121
*1034 FILLER_0_7_15
*1035 FILLER_0_7_162
*1036 FILLER_0_7_19
*1037 FILLER_0_7_203
*1038 FILLER_0_7_24
*1039 FILLER_0_7_3
*1040 FILLER_0_7_36
*1041 FILLER_0_7_48
*1042 FILLER_0_7_57
*1043 FILLER_0_7_69
*1044 FILLER_0_7_92
*1045 FILLER_0_8_109
*1046 FILLER_0_8_121
*1047 FILLER_0_8_130
*1048 FILLER_0_8_138
*1049 FILLER_0_8_141
*1050 FILLER_0_8_15
*1051 FILLER_0_8_185
*1052 FILLER_0_8_189
*1053 FILLER_0_8_195
*1054 FILLER_0_8_197
*1055 FILLER_0_8_209
*1056 FILLER_0_8_27
*1057 FILLER_0_8_29
*1058 FILLER_0_8_3
*1059 FILLER_0_8_41
*1060 FILLER_0_8_53
*1061 FILLER_0_8_57
*1062 FILLER_0_8_69
*1063 FILLER_0_8_81
*1064 FILLER_0_8_85
*1065 FILLER_0_8_97
*1066 FILLER_0_9_100
*1067 FILLER_0_9_116
*1068 FILLER_0_9_128
*1069 FILLER_0_9_140
*1070 FILLER_0_9_15
*1071 FILLER_0_9_167
*1072 FILLER_0_9_169
*1073 FILLER_0_9_181
*1074 FILLER_0_9_206
*1075 FILLER_0_9_210
*1076 FILLER_0_9_27
*1077 FILLER_0_9_3
*1078 FILLER_0_9_30
*1079 FILLER_0_9_36
*1080 FILLER_0_9_53
*1081 FILLER_0_9_77
*1082 FILLER_0_9_93
*1083 PHY_EDGE_ROW_0_Left_36
*1084 PHY_EDGE_ROW_0_Right_0
*1085 PHY_EDGE_ROW_10_Left_46
*1086 PHY_EDGE_ROW_10_Right_10
*1087 PHY_EDGE_ROW_11_Left_47
*1088 PHY_EDGE_ROW_11_Right_11
*1089 PHY_EDGE_ROW_12_Left_48
*1090 PHY_EDGE_ROW_12_Right_12
*1091 PHY_EDGE_ROW_13_Left_49
*1092 PHY_EDGE_ROW_13_Right_13
*1093 PHY_EDGE_ROW_14_Left_50
*1094 PHY_EDGE_ROW_14_Right_14
*1095 PHY_EDGE_ROW_15_Left_51
*1096 PHY_EDGE_ROW_15_Right_15
*1097 PHY_EDGE_ROW_16_Left_52
*1098 PHY_EDGE_ROW_16_Right_16
*1099 PHY_EDGE_ROW_17_Left_53
*1100 PHY_EDGE_ROW_17_Right_17
*1101 PHY_EDGE_ROW_18_Left_54
*1102 PHY_EDGE_ROW_18_Right_18
*1103 PHY_EDGE_ROW_19_Left_55
*1104 PHY_EDGE_ROW_19_Right_19
*1105 PHY_EDGE_ROW_1_Left_37
*1106 PHY_EDGE_ROW_1_Right_1
*1107 PHY_EDGE_ROW_20_Left_56
*1108 PHY_EDGE_ROW_20_Right_20
*1109 PHY_EDGE_ROW_21_Left_57
*1110 PHY_EDGE_ROW_21_Right_21
*1111 PHY_EDGE_ROW_22_Left_58
*1112 PHY_EDGE_ROW_22_Right_22
*1113 PHY_EDGE_ROW_23_Left_59
*1114 PHY_EDGE_ROW_23_Right_23
*1115 PHY_EDGE_ROW_24_Left_60
*1116 PHY_EDGE_ROW_24_Right_24
*1117 PHY_EDGE_ROW_25_Left_61
*1118 PHY_EDGE_ROW_25_Right_25
*1119 PHY_EDGE_ROW_26_Left_62
*1120 PHY_EDGE_ROW_26_Right_26
*1121 PHY_EDGE_ROW_27_Left_63
*1122 PHY_EDGE_ROW_27_Right_27
*1123 PHY_EDGE_ROW_28_Left_64
*1124 PHY_EDGE_ROW_28_Right_28
*1125 PHY_EDGE_ROW_29_Left_65
*1126 PHY_EDGE_ROW_29_Right_29
*1127 PHY_EDGE_ROW_2_Left_38
*1128 PHY_EDGE_ROW_2_Right_2
*1129 PHY_EDGE_ROW_30_Left_66
*1130 PHY_EDGE_ROW_30_Right_30
*1131 PHY_EDGE_ROW_31_Left_67
*1132 PHY_EDGE_ROW_31_Right_31
*1133 PHY_EDGE_ROW_32_Left_68
*1134 PHY_EDGE_ROW_32_Right_32
*1135 PHY_EDGE_ROW_33_Left_69
*1136 PHY_EDGE_ROW_33_Right_33
*1137 PHY_EDGE_ROW_34_Left_70
*1138 PHY_EDGE_ROW_34_Right_34
*1139 PHY_EDGE_ROW_35_Left_71
*1140 PHY_EDGE_ROW_35_Right_35
*1141 PHY_EDGE_ROW_3_Left_39
*1142 PHY_EDGE_ROW_3_Right_3
*1143 PHY_EDGE_ROW_4_Left_40
*1144 PHY_EDGE_ROW_4_Right_4
*1145 PHY_EDGE_ROW_5_Left_41
*1146 PHY_EDGE_ROW_5_Right_5
*1147 PHY_EDGE_ROW_6_Left_42
*1148 PHY_EDGE_ROW_6_Right_6
*1149 PHY_EDGE_ROW_7_Left_43
*1150 PHY_EDGE_ROW_7_Right_7
*1151 PHY_EDGE_ROW_8_Left_44
*1152 PHY_EDGE_ROW_8_Right_8
*1153 PHY_EDGE_ROW_9_Left_45
*1154 PHY_EDGE_ROW_9_Right_9
*1155 PoR\.ROSC_CLKBUF_0
*1156 PoR\.ROSC_CLKBUF_1
*1157 PoR\.ROSC_DLYBUF_6
*1158 PoR\.ROSC_DLYINV_0\.clkdlybuf
*1159 PoR\.ROSC_DLYINV_0\.clkinv
*1160 PoR\.ROSC_DLYINV_1\.clkdlybuf
*1161 PoR\.ROSC_DLYINV_1\.clkinv
*1162 PoR\.ROSC_DLYINV_2\.clkdlybuf
*1163 PoR\.ROSC_DLYINV_2\.clkinv
*1164 PoR\.ROSC_DLYINV_3\.clkdlybuf
*1165 PoR\.ROSC_DLYINV_3\.clkinv
*1166 PoR\.ROSC_DLYINV_4\.clkdlybuf
*1167 PoR\.ROSC_DLYINV_4\.clkinv
*1168 PoR\.ROSC_DLYINV_5\.clkdlybuf
*1169 PoR\.ROSC_DLYINV_5\.clkinv
*1170 PoR\.ROSC_DLYINV_7
*1171 TAP_TAPCELL_ROW_0_72
*1172 TAP_TAPCELL_ROW_0_73
*1173 TAP_TAPCELL_ROW_0_74
*1174 TAP_TAPCELL_ROW_0_75
*1175 TAP_TAPCELL_ROW_0_76
*1176 TAP_TAPCELL_ROW_0_77
*1177 TAP_TAPCELL_ROW_0_78
*1178 TAP_TAPCELL_ROW_10_110
*1179 TAP_TAPCELL_ROW_10_111
*1180 TAP_TAPCELL_ROW_10_112
*1181 TAP_TAPCELL_ROW_10_113
*1182 TAP_TAPCELL_ROW_11_114
*1183 TAP_TAPCELL_ROW_11_115
*1184 TAP_TAPCELL_ROW_11_116
*1185 TAP_TAPCELL_ROW_12_117
*1186 TAP_TAPCELL_ROW_12_118
*1187 TAP_TAPCELL_ROW_12_119
*1188 TAP_TAPCELL_ROW_12_120
*1189 TAP_TAPCELL_ROW_13_121
*1190 TAP_TAPCELL_ROW_13_122
*1191 TAP_TAPCELL_ROW_13_123
*1192 TAP_TAPCELL_ROW_14_124
*1193 TAP_TAPCELL_ROW_14_125
*1194 TAP_TAPCELL_ROW_14_126
*1195 TAP_TAPCELL_ROW_14_127
*1196 TAP_TAPCELL_ROW_15_128
*1197 TAP_TAPCELL_ROW_15_129
*1198 TAP_TAPCELL_ROW_15_130
*1199 TAP_TAPCELL_ROW_16_131
*1200 TAP_TAPCELL_ROW_16_132
*1201 TAP_TAPCELL_ROW_16_133
*1202 TAP_TAPCELL_ROW_16_134
*1203 TAP_TAPCELL_ROW_17_135
*1204 TAP_TAPCELL_ROW_17_136
*1205 TAP_TAPCELL_ROW_17_137
*1206 TAP_TAPCELL_ROW_18_138
*1207 TAP_TAPCELL_ROW_18_139
*1208 TAP_TAPCELL_ROW_18_140
*1209 TAP_TAPCELL_ROW_18_141
*1210 TAP_TAPCELL_ROW_19_142
*1211 TAP_TAPCELL_ROW_19_143
*1212 TAP_TAPCELL_ROW_19_144
*1213 TAP_TAPCELL_ROW_1_79
*1214 TAP_TAPCELL_ROW_1_80
*1215 TAP_TAPCELL_ROW_1_81
*1216 TAP_TAPCELL_ROW_20_145
*1217 TAP_TAPCELL_ROW_20_146
*1218 TAP_TAPCELL_ROW_20_147
*1219 TAP_TAPCELL_ROW_20_148
*1220 TAP_TAPCELL_ROW_21_149
*1221 TAP_TAPCELL_ROW_21_150
*1222 TAP_TAPCELL_ROW_21_151
*1223 TAP_TAPCELL_ROW_22_152
*1224 TAP_TAPCELL_ROW_22_153
*1225 TAP_TAPCELL_ROW_22_154
*1226 TAP_TAPCELL_ROW_22_155
*1227 TAP_TAPCELL_ROW_23_156
*1228 TAP_TAPCELL_ROW_23_157
*1229 TAP_TAPCELL_ROW_23_158
*1230 TAP_TAPCELL_ROW_24_159
*1231 TAP_TAPCELL_ROW_24_160
*1232 TAP_TAPCELL_ROW_24_161
*1233 TAP_TAPCELL_ROW_24_162
*1234 TAP_TAPCELL_ROW_25_163
*1235 TAP_TAPCELL_ROW_25_164
*1236 TAP_TAPCELL_ROW_25_165
*1237 TAP_TAPCELL_ROW_26_166
*1238 TAP_TAPCELL_ROW_26_167
*1239 TAP_TAPCELL_ROW_26_168
*1240 TAP_TAPCELL_ROW_26_169
*1241 TAP_TAPCELL_ROW_27_170
*1242 TAP_TAPCELL_ROW_27_171
*1243 TAP_TAPCELL_ROW_27_172
*1244 TAP_TAPCELL_ROW_28_173
*1245 TAP_TAPCELL_ROW_28_174
*1246 TAP_TAPCELL_ROW_28_175
*1247 TAP_TAPCELL_ROW_28_176
*1248 TAP_TAPCELL_ROW_29_177
*1249 TAP_TAPCELL_ROW_29_178
*1250 TAP_TAPCELL_ROW_29_179
*1251 TAP_TAPCELL_ROW_2_82
*1252 TAP_TAPCELL_ROW_2_83
*1253 TAP_TAPCELL_ROW_2_84
*1254 TAP_TAPCELL_ROW_2_85
*1255 TAP_TAPCELL_ROW_30_180
*1256 TAP_TAPCELL_ROW_30_181
*1257 TAP_TAPCELL_ROW_30_182
*1258 TAP_TAPCELL_ROW_30_183
*1259 TAP_TAPCELL_ROW_31_184
*1260 TAP_TAPCELL_ROW_31_185
*1261 TAP_TAPCELL_ROW_31_186
*1262 TAP_TAPCELL_ROW_32_187
*1263 TAP_TAPCELL_ROW_32_188
*1264 TAP_TAPCELL_ROW_32_189
*1265 TAP_TAPCELL_ROW_32_190
*1266 TAP_TAPCELL_ROW_33_191
*1267 TAP_TAPCELL_ROW_33_192
*1268 TAP_TAPCELL_ROW_33_193
*1269 TAP_TAPCELL_ROW_34_194
*1270 TAP_TAPCELL_ROW_34_195
*1271 TAP_TAPCELL_ROW_34_196
*1272 TAP_TAPCELL_ROW_34_197
*1273 TAP_TAPCELL_ROW_35_198
*1274 TAP_TAPCELL_ROW_35_199
*1275 TAP_TAPCELL_ROW_35_200
*1276 TAP_TAPCELL_ROW_35_201
*1277 TAP_TAPCELL_ROW_35_202
*1278 TAP_TAPCELL_ROW_35_203
*1279 TAP_TAPCELL_ROW_35_204
*1280 TAP_TAPCELL_ROW_3_86
*1281 TAP_TAPCELL_ROW_3_87
*1282 TAP_TAPCELL_ROW_3_88
*1283 TAP_TAPCELL_ROW_4_89
*1284 TAP_TAPCELL_ROW_4_90
*1285 TAP_TAPCELL_ROW_4_91
*1286 TAP_TAPCELL_ROW_4_92
*1287 TAP_TAPCELL_ROW_5_93
*1288 TAP_TAPCELL_ROW_5_94
*1289 TAP_TAPCELL_ROW_5_95
*1290 TAP_TAPCELL_ROW_6_96
*1291 TAP_TAPCELL_ROW_6_97
*1292 TAP_TAPCELL_ROW_6_98
*1293 TAP_TAPCELL_ROW_6_99
*1294 TAP_TAPCELL_ROW_7_100
*1295 TAP_TAPCELL_ROW_7_101
*1296 TAP_TAPCELL_ROW_7_102
*1297 TAP_TAPCELL_ROW_8_103
*1298 TAP_TAPCELL_ROW_8_104
*1299 TAP_TAPCELL_ROW_8_105
*1300 TAP_TAPCELL_ROW_8_106
*1301 TAP_TAPCELL_ROW_9_107
*1302 TAP_TAPCELL_ROW_9_108
*1303 TAP_TAPCELL_ROW_9_109
*1304 _167_
*1305 _168_
*1306 _169_
*1307 _170_
*1308 _171_
*1309 _172_
*1310 _173_
*1311 _174_
*1312 _175_
*1313 _176_
*1314 _177_
*1315 _178_
*1316 _179_
*1317 _180_
*1318 _181_
*1319 _182_
*1320 _183_
*1321 _184_
*1322 _185_
*1323 _186_
*1324 _187_
*1325 _188_
*1326 _189_
*1327 _190_
*1328 _191_
*1329 _192_
*1330 _193_
*1331 _194_
*1332 _195_
*1333 _196_
*1334 _197_
*1335 _198_
*1336 _199_
*1337 _200_
*1338 _201_
*1339 _202_
*1340 _203_
*1341 _204_
*1342 _205_
*1343 _206_
*1344 _207_
*1345 _208_
*1346 _209_
*1347 _210_
*1348 _211_
*1349 _212_
*1350 _213_
*1351 _214_
*1352 _215_
*1353 _216_
*1354 _217_
*1355 _218_
*1356 _219_
*1357 _220_
*1358 _221_
*1359 _222_
*1360 _223_
*1361 _224_
*1362 _225_
*1363 _226_
*1364 _227_
*1365 _228_
*1366 _229_
*1367 _230_
*1368 _231_
*1369 _232_
*1370 _233_
*1371 _234_
*1372 _235_
*1373 _236_
*1374 _237_
*1375 _238_
*1376 _239_
*1377 _240_
*1378 _241_
*1379 _242_
*1380 _243_
*1381 _244_
*1382 _245_
*1383 _246_
*1384 _247_
*1385 _248_
*1386 _249_
*1387 _250_
*1388 _251_
*1389 _252_
*1390 _253_
*1391 _254_
*1392 _255_
*1393 _256_
*1394 _257_
*1395 _258_
*1396 _259_
*1397 _260_
*1398 _261_
*1399 _262_
*1400 _263_
*1401 _264_
*1402 _265_
*1403 _266_
*1404 _267_
*1405 _268_
*1406 _269_
*1407 _270_
*1408 _271_
*1409 _272_
*1410 _273_
*1411 _274_
*1412 _275_
*1413 _276_
*1414 _277_
*1415 _278_
*1416 _279_
*1417 _280_
*1418 _281_
*1419 _282_
*1420 _283_
*1421 _284_
*1422 _285_
*1423 _286_
*1424 _287_
*1425 _288_
*1426 _289_
*1427 _290_
*1428 _291_
*1429 _292_
*1430 _293_
*1431 _294_
*1432 _295_
*1433 _296_
*1434 _297_
*1435 _298_
*1436 _299_
*1437 _300_
*1438 _301_
*1439 _302_
*1440 _303_
*1441 _304_
*1442 _305_
*1443 _306_
*1444 _307_
*1445 _308_
*1446 _309_
*1447 _310_
*1448 _311_
*1449 _312_
*1450 _313_
*1451 _314_
*1452 _315_
*1453 _316_
*1454 _317_
*1455 _318_
*1456 _319_
*1457 _320_
*1458 _321_
*1459 _322_
*1460 _323_
*1461 _324_
*1462 _325_
*1463 _326_
*1464 _327_
*1465 _328_
*1466 _329_
*1467 _330_
*1468 _331_
*1469 _332_
*1470 _333_
*1471 _334_
*1472 _335_
*1473 _336_
*1474 _337_
*1475 _338_
*1476 _339_
*1477 _340_
*1478 _341_
*1479 _342_
*1480 _343_
*1481 _344_
*1482 _345_
*1483 _346_
*1484 _347_
*1485 _348_
*1486 _349_
*1487 _350_
*1488 _351_
*1489 _352_
*1490 _353_
*1491 _354_
*1492 _355_
*1493 _356_
*1494 _357_
*1495 _358_
*1496 _359_
*1497 _360_
*1498 _361_
*1499 _362_
*1500 _363_
*1501 _364_
*1502 _365_
*1503 _366_
*1504 _367_