*SPEF "ieee 1481-1999"
*DESIGN "MS_CLK_RST"
*DATE "11:11:11 Fri 11 11, 1111"
*VENDOR "OpenRCX"
*PROGRAM "Parallel Extraction"
*VERSION "1.0"
*DESIGN_FLOW "NAME_SCOPE LOCAL" "PIN_CAP NONE"
*DIVIDER /
*DELIMITER :
*BUS_DELIMITER []
*T_UNIT 1 NS
*C_UNIT 1 PF
*R_UNIT 1 OHM
*L_UNIT 1 HENRY

*NAME_MAP
*1 clk
*2 clk_div[0]
*3 clk_div[1]
*4 por_fb_in
*5 por_fb_out
*6 net17
*7 rst_n
*8 sel_mux0
*9 sel_mux1
*10 sel_mux2
*11 sel_rosc[0]
*12 sel_rosc[1]
*15 xclk0
*16 xclk1
*17 xrst_n
*18 CLKMUX\.clk1
*19 CLKMUX\.clk2
*20 CLKMUX\.clk3
*21 CLKMUX\.clko
*22 CLKMUX\.clko1
*23 CLKMUX\.m1\.Q1a
*24 CLKMUX\.m1\.Q1b
*25 CLKMUX\.m1\.Q2a
*26 CLKMUX\.m1\.Q2b
*27 CLKMUX\.m1\.q1a_in
*28 CLKMUX\.m1\.q2a_in
*29 CLKMUX\.m2\.Q1a
*30 CLKMUX\.m2\.Q1b
*31 CLKMUX\.m2\.Q2a
*32 CLKMUX\.m2\.Q2b
*33 CLKMUX\.m2\.q1a_in
*34 CLKMUX\.m2\.q2a_in
*35 CLKMUX\.m3\.Q1a
*36 CLKMUX\.m3\.Q1b
*37 CLKMUX\.m3\.Q2a
*38 CLKMUX\.m3\.Q2b
*39 CLKMUX\.m3\.q1a_in
*40 CLKMUX\.m3\.q2a_in
*41 CLKMUX0\.Q1a
*42 CLKMUX0\.Q1b
*43 CLKMUX0\.Q2a
*44 CLKMUX0\.Q2b
*45 CLKMUX0\.q1a_in
*46 CLKMUX0\.q2a_in
*47 CLKMUX1\.Q1a
*48 CLKMUX1\.Q1b
*49 CLKMUX1\.Q2a
*50 CLKMUX1\.Q2b
*51 CLKMUX1\.clk1
*52 CLKMUX1\.q1a_in
*53 CLKMUX1\.q2a_in
*54 CLKMUX2\.Q1a
*55 CLKMUX2\.Q1b
*56 CLKMUX2\.Q2a
*57 CLKMUX2\.Q2b
*58 CLKMUX2\.q1a_in
*59 CLKMUX2\.q2a_in
*60 PoR\.CLKMUX\.clk0
*61 PoR\.CLKMUX\.m1\.Q1a
*62 PoR\.CLKMUX\.m1\.Q1b
*63 PoR\.CLKMUX\.m1\.Q2a
*64 PoR\.CLKMUX\.m1\.Q2b
*65 PoR\.CLKMUX\.m1\.q1a_in
*66 PoR\.CLKMUX\.m1\.q2a_in
*67 PoR\.CLKMUX\.m2\.Q1a
*68 PoR\.CLKMUX\.m2\.Q1b
*69 PoR\.CLKMUX\.m2\.Q2a
*70 PoR\.CLKMUX\.m2\.Q2b
*71 PoR\.CLKMUX\.m2\.q1a_in
*72 PoR\.CLKMUX\.m2\.q2a_in
*73 PoR\.CLKMUX\.m3\.Q1a
*74 PoR\.CLKMUX\.m3\.Q1b
*75 PoR\.CLKMUX\.m3\.Q2a
*76 PoR\.CLKMUX\.m3\.Q2b
*77 PoR\.CLKMUX\.m3\.q1a_in
*78 PoR\.CLKMUX\.m3\.q2a_in
*79 PoR\.ROSC_DLYINV_0\.Y
*80 PoR\.ROSC_DLYINV_0\.clkinv_out
*81 PoR\.ROSC_DLYINV_1\.Y
*82 PoR\.ROSC_DLYINV_1\.clkinv_out
*83 PoR\.ROSC_DLYINV_2\.Y
*84 PoR\.ROSC_DLYINV_2\.clkinv_out
*85 PoR\.ROSC_DLYINV_3\.Y
*86 PoR\.ROSC_DLYINV_3\.clkinv_out
*87 PoR\.ROSC_DLYINV_4\.Y
*88 PoR\.ROSC_DLYINV_4\.clkinv_out
*89 PoR\.ROSC_DLYINV_5\.Y
*90 PoR\.ROSC_DLYINV_5\.clkinv_out
*91 PoR\.clk_div\[1\]
*92 PoR\.clk_div\[2\]
*93 PoR\.clk_div\[3\]
*94 PoR\.clk_div\[4\]
*95 PoR\.clk_div\[5\]
*96 PoR\.clk_div\[6\]
*97 PoR\.clk_div\[7\]
*98 PoR\.clk_div\[8\]
*99 PoR\.cmp0
*100 PoR\.cmp1
*101 PoR\.cmp2
*102 PoR\.cmp3
*103 PoR\.dly\[7\]
*104 PoR\.dly\[8\]
*105 PoR\.shift_reg0\[0\]
*106 PoR\.shift_reg0\[10\]
*107 PoR\.shift_reg0\[11\]
*108 PoR\.shift_reg0\[12\]
*109 PoR\.shift_reg0\[13\]
*110 PoR\.shift_reg0\[14\]
*111 PoR\.shift_reg0\[15\]
*112 PoR\.shift_reg0\[1\]
*113 PoR\.shift_reg0\[2\]
*114 PoR\.shift_reg0\[3\]
*115 PoR\.shift_reg0\[4\]
*116 PoR\.shift_reg0\[5\]
*117 PoR\.shift_reg0\[6\]
*118 PoR\.shift_reg0\[7\]
*119 PoR\.shift_reg0\[8\]
*120 PoR\.shift_reg0\[9\]
*121 RST_SYNC\.rst_sync\[0\]
*122 RST_SYNC\.rst_sync\[1\]
*123 RST_SYNC\.rst_sync\[2\]
*124 _000_
*125 _001_
*126 _002_
*127 _003_
*128 _004_
*129 _005_
*130 _006_
*131 _007_
*132 _008_
*133 _009_
*134 _010_
*135 _011_
*136 _012_
*137 _013_
*138 _014_
*139 _015_
*140 _016_
*141 _017_
*142 _018_
*143 _019_
*144 _020_
*145 _021_
*146 _022_
*147 _023_
*148 _024_
*149 _025_
*150 _026_
*151 _027_
*152 _028_
*153 _029_
*154 _030_
*155 _031_
*156 _032_
*157 _033_
*158 _034_
*159 _035_
*160 _036_
*161 _037_
*162 _038_
*163 _039_
*164 _040_
*165 _041_
*166 _042_
*167 _043_
*168 _044_
*169 _045_
*170 _046_
*171 _047_
*172 _048_
*173 _049_
*174 _050_
*175 _051_
*176 _052_
*177 _053_
*178 _054_
*179 _055_
*180 _056_
*181 _057_
*182 _058_
*183 _059_
*184 _060_
*185 _061_
*186 _062_
*187 _063_
*188 _064_
*189 _065_
*190 _066_
*191 _067_
*192 _068_
*193 _069_
*194 _070_
*195 _071_
*196 _072_
*197 _073_
*198 _074_
*199 _075_
*200 _076_
*201 _077_
*202 _078_
*203 _079_
*204 _080_
*205 _081_
*206 _082_
*207 _083_
*208 _084_
*209 _085_
*210 _086_
*211 _087_
*212 _088_
*213 _089_
*214 _090_
*215 _091_
*216 _092_
*217 _093_
*218 _094_
*219 _095_
*220 _096_
*221 _097_
*222 _098_
*223 _099_
*224 _100_
*225 _101_
*226 _102_
*227 _103_
*228 _104_
*229 _105_
*230 _106_
*231 _107_
*232 _108_
*233 _109_
*234 _110_
*235 _111_
*236 _112_
*237 _113_
*238 _114_
*239 _115_
*240 _116_
*241 _117_
*242 _118_
*243 _119_
*244 _120_
*245 _121_
*246 en_xclk_cntr
*247 mon_cntr\[0\]
*248 mon_cntr\[1\]
*249 mon_cntr\[2\]
*250 mon_cntr\[3\]
*251 mon_cntr\[4\]
*252 mon_cntr\[5\]
*253 mon_cntr\[6\]
*254 mon_cntr\[7\]
*255 net1
*256 net10
*257 net11
*258 net12
*259 net13
*260 net14
*261 net15
*262 net16
*263 net18
*264 net19
*265 net2
*266 net20
*267 net3
*268 net4
*269 net5
*270 net6
*271 net7
*272 net8
*273 net9
*274 xclk_cntr\[0\]
*275 xclk_cntr\[1\]
*276 xclk_cntr\[2\]
*277 xclk_cntr\[3\]
*278 xclk_cntr\[4\]
*279 xclk_cntr\[5\]
*280 xclk_cntr\[6\]
*281 xclk_cntr\[7\]
*282 xclk_cntr\[8\]
*283 xclk_mon_rst_n
*284 xclk_sync\[0\]
*285 xclk_sync\[1\]
*286 xclk_sync\[2\]
*287 ANTENNA__130__A1
*288 ANTENNA__261__A
*289 ANTENNA__268__CLK
*290 ANTENNA__269__CLK
*291 ANTENNA__270__CLK
*292 ANTENNA__271__CLK
*293 ANTENNA__272__CLK
*294 ANTENNA__273__CLK
*295 ANTENNA__274__CLK
*296 ANTENNA__275__CLK
*297 ANTENNA__276__CLK
*298 ANTENNA__277__CLK
*299 ANTENNA__278__CLK
*300 ANTENNA__279__CLK
*301 ANTENNA__280__CLK
*302 ANTENNA__281__CLK
*303 ANTENNA__282__CLK
*304 ANTENNA__283__CLK
*305 ANTENNA__284__CLK
*306 ANTENNA__285__CLK
*307 ANTENNA__286__CLK
*308 ANTENNA__287__CLK
*309 ANTENNA__288__CLK
*310 ANTENNA__289__CLK
*311 ANTENNA__312__CLK
*312 ANTENNA__324__CLK
*313 ANTENNA__325__CLK
*314 ANTENNA__326__CLK
*315 ANTENNA__327__CLK
*316 ANTENNA__328__CLK
*317 ANTENNA__329__CLK
*318 ANTENNA__330__CLK
*319 ANTENNA__331__CLK
*320 FILLER_0_0_109
*321 FILLER_0_0_113
*322 FILLER_0_0_117
*323 FILLER_0_0_129
*324 FILLER_0_0_137
*325 FILLER_0_0_141
*326 FILLER_0_0_15
*327 FILLER_0_0_153
*328 FILLER_0_0_169
*329 FILLER_0_0_27
*330 FILLER_0_0_29
*331 FILLER_0_0_3
*332 FILLER_0_0_37
*333 FILLER_0_0_42
*334 FILLER_0_0_54
*335 FILLER_0_0_57
*336 FILLER_0_0_65
*337 FILLER_0_0_69
*338 FILLER_0_0_81
*339 FILLER_0_0_85
*340 FILLER_0_0_89
*341 FILLER_0_0_92
*342 FILLER_0_0_97
*343 FILLER_0_10_10
*344 FILLER_0_10_107
*345 FILLER_0_10_111
*346 FILLER_0_10_115
*347 FILLER_0_10_127
*348 FILLER_0_10_16
*349 FILLER_0_10_162
*350 FILLER_0_10_170
*351 FILLER_0_10_26
*352 FILLER_0_10_29
*353 FILLER_0_10_3
*354 FILLER_0_10_41
*355 FILLER_0_10_53
*356 FILLER_0_10_59
*357 FILLER_0_10_80
*358 FILLER_0_10_85
*359 FILLER_0_11_10
*360 FILLER_0_11_105
*361 FILLER_0_11_138
*362 FILLER_0_11_169
*363 FILLER_0_11_22
*364 FILLER_0_11_3
*365 FILLER_0_11_45
*366 FILLER_0_11_54
*367 FILLER_0_11_66
*368 FILLER_0_11_72
*369 FILLER_0_11_93
*370 FILLER_0_12_105
*371 FILLER_0_12_113
*372 FILLER_0_12_125
*373 FILLER_0_12_13
*374 FILLER_0_12_131
*375 FILLER_0_12_164
*376 FILLER_0_12_170
*377 FILLER_0_12_25
*378 FILLER_0_12_29
*379 FILLER_0_12_3
*380 FILLER_0_12_35
*381 FILLER_0_12_67
*382 FILLER_0_12_74
*383 FILLER_0_12_82
*384 FILLER_0_12_85
*385 FILLER_0_12_89
*386 FILLER_0_12_9
*387 FILLER_0_12_93
*388 FILLER_0_13_11
*389 FILLER_0_13_111
*390 FILLER_0_13_113
*391 FILLER_0_13_118
*392 FILLER_0_13_126
*393 FILLER_0_13_157
*394 FILLER_0_13_165
*395 FILLER_0_13_169
*396 FILLER_0_13_17
*397 FILLER_0_13_3
*398 FILLER_0_13_38
*399 FILLER_0_13_43
*400 FILLER_0_13_55
*401 FILLER_0_13_57
*402 FILLER_0_13_69
*403 FILLER_0_13_7
*404 FILLER_0_14_116
*405 FILLER_0_14_138
*406 FILLER_0_14_147
*407 FILLER_0_14_29
*408 FILLER_0_14_3
*409 FILLER_0_14_40
*410 FILLER_0_14_51
*411 FILLER_0_14_73
*412 FILLER_0_14_81
*413 FILLER_0_14_85
*414 FILLER_0_14_97
*415 FILLER_0_15_111
*416 FILLER_0_15_113
*417 FILLER_0_15_125
*418 FILLER_0_15_144
*419 FILLER_0_15_148
*420 FILLER_0_15_157
*421 FILLER_0_15_165
*422 FILLER_0_15_169
*423 FILLER_0_15_17
*424 FILLER_0_15_26
*425 FILLER_0_15_38
*426 FILLER_0_15_62
*427 FILLER_0_15_70
*428 FILLER_0_15_75
*429 FILLER_0_15_9
*430 FILLER_0_15_96
*431 FILLER_0_16_11
*432 FILLER_0_16_138
*433 FILLER_0_16_141
*434 FILLER_0_16_149
*435 FILLER_0_16_157
*436 FILLER_0_16_169
*437 FILLER_0_16_17
*438 FILLER_0_16_25
*439 FILLER_0_16_29
*440 FILLER_0_16_3
*441 FILLER_0_16_40
*442 FILLER_0_16_48
*443 FILLER_0_16_59
*444 FILLER_0_16_83
*445 FILLER_0_16_85
*446 FILLER_0_16_93
*447 FILLER_0_17_103
*448 FILLER_0_17_109
*449 FILLER_0_17_113
*450 FILLER_0_17_121
*451 FILLER_0_17_146
*452 FILLER_0_17_15
*453 FILLER_0_17_169
*454 FILLER_0_17_3
*455 FILLER_0_17_47
*456 FILLER_0_17_55
*457 FILLER_0_17_57
*458 FILLER_0_17_63
*459 FILLER_0_17_67
*460 FILLER_0_17_75
*461 FILLER_0_17_87
*462 FILLER_0_17_95
*463 FILLER_0_18_101
*464 FILLER_0_18_125
*465 FILLER_0_18_138
*466 FILLER_0_18_165
*467 FILLER_0_18_29
*468 FILLER_0_18_3
*469 FILLER_0_18_37
*470 FILLER_0_18_55
*471 FILLER_0_18_59
*472 FILLER_0_18_63
*473 FILLER_0_18_7
*474 FILLER_0_18_75
*475 FILLER_0_18_83
*476 FILLER_0_18_85
*477 FILLER_0_18_97
*478 FILLER_0_19_108
*479 FILLER_0_19_133
*480 FILLER_0_19_141
*481 FILLER_0_19_145
*482 FILLER_0_19_15
*483 FILLER_0_19_151
*484 FILLER_0_19_157
*485 FILLER_0_19_169
*486 FILLER_0_19_23
*487 FILLER_0_19_3
*488 FILLER_0_19_35
*489 FILLER_0_19_39
*490 FILLER_0_19_43
*491 FILLER_0_19_52
*492 FILLER_0_19_57
*493 FILLER_0_19_64
*494 FILLER_0_19_9
*495 FILLER_0_1_133
*496 FILLER_0_1_140
*497 FILLER_0_1_16
*498 FILLER_0_1_161
*499 FILLER_0_1_167
*500 FILLER_0_1_169
*501 FILLER_0_1_28
*502 FILLER_0_1_3
*503 FILLER_0_1_40
*504 FILLER_0_1_52
*505 FILLER_0_1_9
*506 FILLER_0_20_107
*507 FILLER_0_20_139
*508 FILLER_0_20_141
*509 FILLER_0_20_150
*510 FILLER_0_20_159
*511 FILLER_0_20_21
*512 FILLER_0_20_29
*513 FILLER_0_20_3
*514 FILLER_0_20_41
*515 FILLER_0_20_53
*516 FILLER_0_20_76
*517 FILLER_0_20_85
*518 FILLER_0_20_9
*519 FILLER_0_21_100
*520 FILLER_0_21_11
*521 FILLER_0_21_113
*522 FILLER_0_21_125
*523 FILLER_0_21_132
*524 FILLER_0_21_162
*525 FILLER_0_21_169
*526 FILLER_0_21_23
*527 FILLER_0_21_3
*528 FILLER_0_21_37
*529 FILLER_0_21_43
*530 FILLER_0_21_55
*531 FILLER_0_21_57
*532 FILLER_0_21_69
*533 FILLER_0_21_7
*534 FILLER_0_21_75
*535 FILLER_0_21_87
*536 FILLER_0_21_95
*537 FILLER_0_22_105
*538 FILLER_0_22_113
*539 FILLER_0_22_141
*540 FILLER_0_22_149
*541 FILLER_0_22_15
*542 FILLER_0_22_27
*543 FILLER_0_22_29
*544 FILLER_0_22_3
*545 FILLER_0_22_39
*546 FILLER_0_22_51
*547 FILLER_0_22_82
*548 FILLER_0_23_139
*549 FILLER_0_23_151
*550 FILLER_0_23_16
*551 FILLER_0_23_160
*552 FILLER_0_23_169
*553 FILLER_0_23_3
*554 FILLER_0_23_38
*555 FILLER_0_23_43
*556 FILLER_0_23_49
*557 FILLER_0_23_53
*558 FILLER_0_23_57
*559 FILLER_0_23_83
*560 FILLER_0_24_110
*561 FILLER_0_24_113
*562 FILLER_0_24_125
*563 FILLER_0_24_137
*564 FILLER_0_24_141
*565 FILLER_0_24_164
*566 FILLER_0_24_170
*567 FILLER_0_24_27
*568 FILLER_0_24_29
*569 FILLER_0_24_3
*570 FILLER_0_24_37
*571 FILLER_0_24_68
*572 FILLER_0_24_76
*573 FILLER_0_24_94
*574 FILLER_0_24_98
*575 FILLER_0_25_108
*576 FILLER_0_25_113
*577 FILLER_0_25_121
*578 FILLER_0_25_13
*579 FILLER_0_25_131
*580 FILLER_0_25_152
*581 FILLER_0_25_164
*582 FILLER_0_25_169
*583 FILLER_0_25_20
*584 FILLER_0_25_32
*585 FILLER_0_25_44
*586 FILLER_0_25_53
*587 FILLER_0_25_60
*588 FILLER_0_25_72
*589 FILLER_0_25_84
*590 FILLER_0_25_96
*591 FILLER_0_26_109
*592 FILLER_0_26_11
*593 FILLER_0_26_114
*594 FILLER_0_26_138
*595 FILLER_0_26_141
*596 FILLER_0_26_145
*597 FILLER_0_26_157
*598 FILLER_0_26_169
*599 FILLER_0_26_22
*600 FILLER_0_26_3
*601 FILLER_0_26_53
*602 FILLER_0_26_65
*603 FILLER_0_26_77
*604 FILLER_0_26_83
*605 FILLER_0_26_85
*606 FILLER_0_26_97
*607 FILLER_0_27_100
*608 FILLER_0_27_105
*609 FILLER_0_27_12
*610 FILLER_0_27_139
*611 FILLER_0_27_151
*612 FILLER_0_27_163
*613 FILLER_0_27_167
*614 FILLER_0_27_169
*615 FILLER_0_27_3
*616 FILLER_0_27_34
*617 FILLER_0_27_46
*618 FILLER_0_27_57
*619 FILLER_0_27_69
*620 FILLER_0_27_76
*621 FILLER_0_27_84
*622 FILLER_0_27_88
*623 FILLER_0_28_109
*624 FILLER_0_28_113
*625 FILLER_0_28_125
*626 FILLER_0_28_137
*627 FILLER_0_28_14
*628 FILLER_0_28_141
*629 FILLER_0_28_153
*630 FILLER_0_28_167
*631 FILLER_0_28_169
*632 FILLER_0_28_20
*633 FILLER_0_28_29
*634 FILLER_0_28_41
*635 FILLER_0_28_53
*636 FILLER_0_28_57
*637 FILLER_0_28_6
*638 FILLER_0_28_69
*639 FILLER_0_28_81
*640 FILLER_0_28_85
*641 FILLER_0_28_97
*642 FILLER_0_2_105
*643 FILLER_0_2_116
*644 FILLER_0_2_120
*645 FILLER_0_2_139
*646 FILLER_0_2_148
*647 FILLER_0_2_15
*648 FILLER_0_2_160
*649 FILLER_0_2_168
*650 FILLER_0_2_27
*651 FILLER_0_2_29
*652 FILLER_0_2_3
*653 FILLER_0_2_37
*654 FILLER_0_2_60
*655 FILLER_0_2_68
*656 FILLER_0_2_85
*657 FILLER_0_2_97
*658 FILLER_0_3_103
*659 FILLER_0_3_109
*660 FILLER_0_3_113
*661 FILLER_0_3_128
*662 FILLER_0_3_15
*663 FILLER_0_3_169
*664 FILLER_0_3_3
*665 FILLER_0_3_34
*666 FILLER_0_3_46
*667 FILLER_0_3_60
*668 FILLER_0_3_65
*669 FILLER_0_3_83
*670 FILLER_0_3_95
*671 FILLER_0_4_136
*672 FILLER_0_4_146
*673 FILLER_0_4_15
*674 FILLER_0_4_150
*675 FILLER_0_4_162
*676 FILLER_0_4_170
*677 FILLER_0_4_27
*678 FILLER_0_4_29
*679 FILLER_0_4_3
*680 FILLER_0_4_35
*681 FILLER_0_4_62
*682 FILLER_0_4_81
*683 FILLER_0_4_85
*684 FILLER_0_5_105
*685 FILLER_0_5_120
*686 FILLER_0_5_126
*687 FILLER_0_5_134
*688 FILLER_0_5_152
*689 FILLER_0_5_164
*690 FILLER_0_5_169
*691 FILLER_0_5_18
*692 FILLER_0_5_42
*693 FILLER_0_5_53
*694 FILLER_0_5_57
*695 FILLER_0_5_6
*696 FILLER_0_5_63
*697 FILLER_0_5_93
*698 FILLER_0_6_10
*699 FILLER_0_6_118
*700 FILLER_0_6_129
*701 FILLER_0_6_137
*702 FILLER_0_6_16
*703 FILLER_0_6_170
*704 FILLER_0_6_29
*705 FILLER_0_6_3
*706 FILLER_0_6_42
*707 FILLER_0_6_46
*708 FILLER_0_6_58
*709 FILLER_0_6_70
*710 FILLER_0_6_73
*711 FILLER_0_6_81
*712 FILLER_0_6_85
*713 FILLER_0_7_102
*714 FILLER_0_7_106
*715 FILLER_0_7_113
*716 FILLER_0_7_117
*717 FILLER_0_7_121
*718 FILLER_0_7_13
*719 FILLER_0_7_133
*720 FILLER_0_7_159
*721 FILLER_0_7_167
*722 FILLER_0_7_169
*723 FILLER_0_7_3
*724 FILLER_0_7_32
*725 FILLER_0_7_36
*726 FILLER_0_7_55
*727 FILLER_0_7_57
*728 FILLER_0_7_65
*729 FILLER_0_7_84
*730 FILLER_0_7_98
*731 FILLER_0_8_129
*732 FILLER_0_8_137
*733 FILLER_0_8_141
*734 FILLER_0_8_15
*735 FILLER_0_8_153
*736 FILLER_0_8_165
*737 FILLER_0_8_27
*738 FILLER_0_8_29
*739 FILLER_0_8_3
*740 FILLER_0_8_41
*741 FILLER_0_8_47
*742 FILLER_0_8_77
*743 FILLER_0_8_83
*744 FILLER_0_9_109
*745 FILLER_0_9_113
*746 FILLER_0_9_144
*747 FILLER_0_9_15
*748 FILLER_0_9_169
*749 FILLER_0_9_19
*750 FILLER_0_9_28
*751 FILLER_0_9_3
*752 FILLER_0_9_53
*753 FILLER_0_9_57
*754 FILLER_0_9_69
*755 FILLER_0_9_81
*756 FILLER_0_9_97
*757 MS_CLK_RST_17
*758 PHY_EDGE_ROW_0_Left_29
*759 PHY_EDGE_ROW_0_Right_0
*760 PHY_EDGE_ROW_10_Left_39
*761 PHY_EDGE_ROW_10_Right_10
*762 PHY_EDGE_ROW_11_Left_40
*763 PHY_EDGE_ROW_11_Right_11
*764 PHY_EDGE_ROW_12_Left_41
*765 PHY_EDGE_ROW_12_Right_12
*766 PHY_EDGE_ROW_13_Left_42
*767 PHY_EDGE_ROW_13_Right_13
*768 PHY_EDGE_ROW_14_Left_43
*769 PHY_EDGE_ROW_14_Right_14
*770 PHY_EDGE_ROW_15_Left_44
*771 PHY_EDGE_ROW_15_Right_15
*772 PHY_EDGE_ROW_16_Left_45
*773 PHY_EDGE_ROW_16_Right_16
*774 PHY_EDGE_ROW_17_Left_46
*775 PHY_EDGE_ROW_17_Right_17
*776 PHY_EDGE_ROW_18_Left_47
*777 PHY_EDGE_ROW_18_Right_18
*778 PHY_EDGE_ROW_19_Left_48
*779 PHY_EDGE_ROW_19_Right_19
*780 PHY_EDGE_ROW_1_Left_30
*781 PHY_EDGE_ROW_1_Right_1
*782 PHY_EDGE_ROW_20_Left_49
*783 PHY_EDGE_ROW_20_Right_20
*784 PHY_EDGE_ROW_21_Left_50
*785 PHY_EDGE_ROW_21_Right_21
*786 PHY_EDGE_ROW_22_Left_51
*787 PHY_EDGE_ROW_22_Right_22
*788 PHY_EDGE_ROW_23_Left_52
*789 PHY_EDGE_ROW_23_Right_23
*790 PHY_EDGE_ROW_24_Left_53
*791 PHY_EDGE_ROW_24_Right_24
*792 PHY_EDGE_ROW_25_Left_54
*793 PHY_EDGE_ROW_25_Right_25
*794 PHY_EDGE_ROW_26_Left_55
*795 PHY_EDGE_ROW_26_Right_26
*796 PHY_EDGE_ROW_27_Left_56
*797 PHY_EDGE_ROW_27_Right_27
*798 PHY_EDGE_ROW_28_Left_57
*799 PHY_EDGE_ROW_28_Right_28
*800 PHY_EDGE_ROW_2_Left_31
*801 PHY_EDGE_ROW_2_Right_2
*802 PHY_EDGE_ROW_3_Left_32
*803 PHY_EDGE_ROW_3_Right_3
*804 PHY_EDGE_ROW_4_Left_33
*805 PHY_EDGE_ROW_4_Right_4
*806 PHY_EDGE_ROW_5_Left_34
*807 PHY_EDGE_ROW_5_Right_5
*808 PHY_EDGE_ROW_6_Left_35
*809 PHY_EDGE_ROW_6_Right_6
*810 PHY_EDGE_ROW_7_Left_36
*811 PHY_EDGE_ROW_7_Right_7
*812 PHY_EDGE_ROW_8_Left_37
*813 PHY_EDGE_ROW_8_Right_8
*814 PHY_EDGE_ROW_9_Left_38
*815 PHY_EDGE_ROW_9_Right_9
*816 PoR\.ROSC_CLKBUF_0
*817 PoR\.ROSC_CLKBUF_1
*818 PoR\.ROSC_DLYBUF_6
*819 PoR\.ROSC_DLYINV_0\.clkdlybuf
*820 PoR\.ROSC_DLYINV_0\.clkinv
*821 PoR\.ROSC_DLYINV_1\.clkdlybuf
*822 PoR\.ROSC_DLYINV_1\.clkinv
*823 PoR\.ROSC_DLYINV_2\.clkdlybuf
*824 PoR\.ROSC_DLYINV_2\.clkinv
*825 PoR\.ROSC_DLYINV_3\.clkdlybuf
*826 PoR\.ROSC_DLYINV_3\.clkinv
*827 PoR\.ROSC_DLYINV_4\.clkdlybuf
*828 PoR\.ROSC_DLYINV_4\.clkinv
*829 PoR\.ROSC_DLYINV_5\.clkdlybuf
*830 PoR\.ROSC_DLYINV_5\.clkinv
*831 PoR\.ROSC_DLYINV_7
*832 TAP_TAPCELL_ROW_0_58
*833 TAP_TAPCELL_ROW_0_59
*834 TAP_TAPCELL_ROW_0_60
*835 TAP_TAPCELL_ROW_0_61
*836 TAP_TAPCELL_ROW_0_62
*837 TAP_TAPCELL_ROW_0_63
*838 TAP_TAPCELL_ROW_10_91
*839 TAP_TAPCELL_ROW_10_92
*840 TAP_TAPCELL_ROW_10_93
*841 TAP_TAPCELL_ROW_11_94
*842 TAP_TAPCELL_ROW_11_95
*843 TAP_TAPCELL_ROW_11_96
*844 TAP_TAPCELL_ROW_12_97
*845 TAP_TAPCELL_ROW_12_98
*846 TAP_TAPCELL_ROW_12_99
*847 TAP_TAPCELL_ROW_13_100
*848 TAP_TAPCELL_ROW_13_101
*849 TAP_TAPCELL_ROW_13_102
*850 TAP_TAPCELL_ROW_14_103
*851 TAP_TAPCELL_ROW_14_104
*852 TAP_TAPCELL_ROW_14_105
*853 TAP_TAPCELL_ROW_15_106
*854 TAP_TAPCELL_ROW_15_107
*855 TAP_TAPCELL_ROW_15_108
*856 TAP_TAPCELL_ROW_16_109
*857 TAP_TAPCELL_ROW_16_110
*858 TAP_TAPCELL_ROW_16_111
*859 TAP_TAPCELL_ROW_17_112
*860 TAP_TAPCELL_ROW_17_113
*861 TAP_TAPCELL_ROW_17_114
*862 TAP_TAPCELL_ROW_18_115
*863 TAP_TAPCELL_ROW_18_116
*864 TAP_TAPCELL_ROW_18_117
*865 TAP_TAPCELL_ROW_19_118
*866 TAP_TAPCELL_ROW_19_119
*867 TAP_TAPCELL_ROW_19_120
*868 TAP_TAPCELL_ROW_1_64
*869 TAP_TAPCELL_ROW_1_65
*870 TAP_TAPCELL_ROW_1_66
*871 TAP_TAPCELL_ROW_20_121
*872 TAP_TAPCELL_ROW_20_122
*873 TAP_TAPCELL_ROW_20_123
*874 TAP_TAPCELL_ROW_21_124
*875 TAP_TAPCELL_ROW_21_125
*876 TAP_TAPCELL_ROW_21_126
*877 TAP_TAPCELL_ROW_22_127
*878 TAP_TAPCELL_ROW_22_128
*879 TAP_TAPCELL_ROW_22_129
*880 TAP_TAPCELL_ROW_23_130
*881 TAP_TAPCELL_ROW_23_131
*882 TAP_TAPCELL_ROW_23_132
*883 TAP_TAPCELL_ROW_24_133
*884 TAP_TAPCELL_ROW_24_134
*885 TAP_TAPCELL_ROW_24_135
*886 TAP_TAPCELL_ROW_25_136
*887 TAP_TAPCELL_ROW_25_137
*888 TAP_TAPCELL_ROW_25_138
*889 TAP_TAPCELL_ROW_26_139
*890 TAP_TAPCELL_ROW_26_140
*891 TAP_TAPCELL_ROW_26_141
*892 TAP_TAPCELL_ROW_27_142
*893 TAP_TAPCELL_ROW_27_143
*894 TAP_TAPCELL_ROW_27_144
*895 TAP_TAPCELL_ROW_28_145
*896 TAP_TAPCELL_ROW_28_146
*897 TAP_TAPCELL_ROW_28_147
*898 TAP_TAPCELL_ROW_28_148
*899 TAP_TAPCELL_ROW_28_149
*900 TAP_TAPCELL_ROW_28_150
*901 TAP_TAPCELL_ROW_2_67
*902 TAP_TAPCELL_ROW_2_68
*903 TAP_TAPCELL_ROW_2_69
*904 TAP_TAPCELL_ROW_3_70
*905 TAP_TAPCELL_ROW_3_71
*906 TAP_TAPCELL_ROW_3_72
*907 TAP_TAPCELL_ROW_4_73
*908 TAP_TAPCELL_ROW_4_74
*909 TAP_TAPCELL_ROW_4_75
*910 TAP_TAPCELL_ROW_5_76
*911 TAP_TAPCELL_ROW_5_77
*912 TAP_TAPCELL_ROW_5_78
*913 TAP_TAPCELL_ROW_6_79
*914 TAP_TAPCELL_ROW_6_80
*915 TAP_TAPCELL_ROW_6_81
*916 TAP_TAPCELL_ROW_7_82
*917 TAP_TAPCELL_ROW_7_83
*918 TAP_TAPCELL_ROW_7_84
*919 TAP_TAPCELL_ROW_8_85
*920 TAP_TAPCELL_ROW_8_86
*921 TAP_TAPCELL_ROW_8_87
*922 TAP_TAPCELL_ROW_9_88
*923 TAP_TAPCELL_ROW_9_89
*924 TAP_TAPCELL_ROW_9_90
*925 _123_
*926 _124_
*927 _125_
*928 _126_
*929 _127_
*930 _128_
*931 _129_
*932 _130_
*933 _131_
*934 _132_
*935 _133_
*936 _134_
*937 _135_
*938 _136_
*939 _137_
*940 _138_
*941 _139_
*942 _140_
*943 _141_
*944 _142_
*945 _143_
*946 _144_
*947 _145_
*948 _146_
*949 _147_
*950 _148_
*951 _149_
*952 _150_
*953 _151_
*954 _152_
*955 _153_
*956 _154_
*957 _155_
*958 _156_
*959 _157_
*960 _158_
*961 _159_
*962 _160_
*963 _161_
*964 _162_
*965 _163_
*966 _164_
*967 _165_
*968 _166_
*969 _167_
*970 _168_
*971 _169_
*972 _170_
*973 _171_
*974 _172_
*975 _173_
*976 _174_
*977 _175_
*978 _176_
*979 _177_
*980 _178_
*981 _179_
*982 _180_
*983 _181_
*984 _182_
*985 _183_
*986 _184_
*987 _185_
*988 _186_
*989 _187_
*990 _188_
*991 _189_
*992 _190_
*993 _191_
*994 _192_
*995 _193_
*996 _194_
*997 _195_
*998 _196_
*999 _197_
*1000 _198_
*1001 _199_
*1002 _200_
*1003 _201_
*1004 _202_
*1005 _203_
*1006 _204_
*1007 _205_
*1008 _206_
*1009 _207_
*1010 _208_
*1011 _209_
*1012 _210_
*1013 _211_
*1014 _212_
*1015 _213_
*1016 _214_
*1017 _215_
*1018 _216_
*1019 _217_
*1020 _218_
*1021 _219_
*1022 _220_
*1023 _221_
*1024 _222_
*1025 _223_
*1026 _224_
*1027 _225_
*1028 _226_
*1029 _227_
*1030 _228_
*1031 _229_
*1032 _230_
*1033 _231_
*1034 _232_
*1035 _233_
*1036 _234_
*1037 _235_
*1038 _236_
*1039 _237_
*1040 _238_
*1041 _239_
*1042 _240_
*1043 _241_
*1044 _242_
*1045 _243_
*1046 _244_
*1047 _245_
*1048 _246_
*1049 _247_
*1050 _248_
*1051 _249_
*1052 _250_
*1053 _251_
*1054 _252_
*1055 _253_
*1056 _254_
*1057 _255_
*1058 _256_
*1059 _257_
*1060 _258_
*1061 _259_
*1062 _260_
*1063 _261_
*1064 _262_
*1065 _263_
*1066 _264_
*1067 _265_
*1068 _266_
*1069 _267_
*1070 _268_
*1071 _269_
*1072 _270_
*1073 _271_
*1074 _272_
*1075 _273_
*1076 _274_
*1077 _275_
*1078 _276_
*1079 _277_
*1080 _278_
*1081 _279_
*1082 _280_
*1083 _281_
*1084 _282_
*1085 _283_
*1086 _284_
*1087 _285_
*1088 _286_
*1089 _287_
*1090 _288_
*1091 _289_
*1092 _290_
*1093 _291_
*1094 _292_
*1095 _293_
*1096 _294_
*1097 _295_
*1098 _296_
*1099 _297_
*1100 _298_
*1101 _299_
*1102 _300_
*1103 _301_
*1104 _302_
*1105 _303_
*1106 _304_
*1107 _305_
*1108 _306_
*1109 _307_
*1110 _308_
*1111 _309_
*1112 _309__16
*1113 _310_
*1114 _311_
*1115 _312_
*1116 _313_
*1117 _314_
*1118 _315_
*1119 _316_
*1120 _317_
*1121 _318_
*1122 _319_
*1123 _320_
*1124 _321_
*1125 _322_
*1126 _323_
*1127 _324_
*1128 _325_
*1129 _326_
*1130 _327_
*1131 _328_
*1132 _329_
*1133 _330_
*1134 _331_
*1135 _332_
*1136 _333_
*1137 _334_
*1138 _335_
*1139 _336_
*1140 _337_
*1141 _338_
*1142 _339_
*1143 _341_
*1144 _342_
*1145 _343_
*1146 _344_
*1147 _345_
*1148 _346_
*1149 _347_
*1150 _348_
*1151 _349_
*1152 _350_
*1153 _351_
*1154 _352_
*1155 _353_
*1156 _354_
*1157 _355_
*1158 _356_
*1159 _357_
*1160 _358_
*1161 _359_
*1162 _360_
*1163 fanout11
*1164 fanout12
*1165 fanout13
*1166 fanout14
*1167 fanout15
*1168 hold1
*1169 hold2
*1170 hold3
*1171 input1
*1172 input2
*1173 input3
*1174 input4
*1175 input5
*1176 input6
*1177 input7
*1178 input8
*1179 output10
*1180 output9

*PORTS
clk O
clk_div[0] I
clk_div[1] I
por_fb_in I
por_fb_out O
por_n O
rst_n O
sel_mux0 I
sel_mux1 I
sel_mux2 I
sel_rosc[0] I
sel_rosc[1] I
xclk0 I
xclk1 I
xrst_n I

*D_NET *1 0.00151654
*CONN
*P clk O
*I *1180:X O *D sky130_fd_sc_hd__buf_1
*CAP
1 clk 0.000680777
2 *1180:X 0.000680777
3 clk *986:A 0.00011327
4 clk *1180:A 3.24696e-05
5 clk *199:21 9.25014e-06
*RES
1 *1180:X clk 21.6095 
*END

*D_NET *2 0.00817512
*CONN
*P clk_div[0] I
*I *952:B I *D sky130_fd_sc_hd__and2b_1
*I *951:B I *D sky130_fd_sc_hd__nor2_1
*I *954:B I *D sky130_fd_sc_hd__nor2_1
*I *955:B I *D sky130_fd_sc_hd__and2b_1
*CAP
1 clk_div[0] 0.00168317
2 *952:B 0
3 *951:B 0.000230701
4 *954:B 0
5 *955:B 0.000236532
6 *2:37 0.000428013
7 *2:15 0.00107627
8 *2:9 0.00272022
9 *951:B *930:B1 0
10 *951:B *952:A_N 0.000132029
11 *951:B *953:A 3.67548e-05
12 *951:B *1100:D 0.000101545
13 *955:B *954:A 0.000169383
14 *955:B *1106:D 5.52302e-05
15 *955:B *1106:RESET_B 1.21289e-05
16 *955:B *258:79 1.88048e-05
17 *2:9 *821:A 0.000128161
18 *2:9 *822:A 5.57914e-05
19 *2:9 *823:A 0
20 *2:9 *824:A 0
21 *2:9 *996:B 1.41029e-05
22 *2:9 *1100:CLK 0
23 *2:9 *1109:RESET_B 0
24 *2:9 *20:10 0
25 *2:9 *60:565 0
26 *2:9 *60:577 8.15939e-05
27 *2:9 *261:54 0
28 *2:15 *944:A 0
29 *2:15 *953:A 0
30 *2:15 *992:A 0
31 *2:15 *994:B 0.000129868
32 *2:15 *995:A 0.000347354
33 *2:15 *996:B 0.000294201
34 *2:15 *1055:A1 0
35 *2:15 *1104:CLK 0
36 *2:15 *1105:D 0
37 *2:15 *1105:RESET_B 5.29648e-05
38 *2:15 *18:10 0
39 *2:15 *18:34 0
40 *2:15 *18:43 0
41 *2:15 *20:10 0
42 *2:15 *48:27 0
43 *2:15 *258:79 1.19309e-05
44 *2:37 *937:A 5.91336e-05
45 *2:37 *996:A 9.92409e-05
*RES
1 clk_div[0] *2:9 32.4464 
2 *2:9 *2:15 19.6071 
3 *2:15 *955:B 18.3536 
4 *2:15 *954:B 13.8 
5 *2:9 *2:37 7.91071 
6 *2:37 *951:B 24.4429 
7 *2:37 *952:B 9.3 
*END

*D_NET *3 0.00911074
*CONN
*P clk_div[1] I
*I *948:B I *D sky130_fd_sc_hd__nor2_1
*I *949:B I *D sky130_fd_sc_hd__and2b_1
*CAP
1 clk_div[1] 0.00193875
2 *948:B 0
3 *949:B 0.000325698
4 *3:23 0.00130729
5 *3:11 0.00292034
6 *949:B *21:10 0
7 *949:B *21:25 0
8 *949:B *60:373 0.00015234
9 *3:11 *928:B 7.83659e-05
10 *3:11 *970:B 4.07164e-05
11 *3:11 *971:A 0
12 *3:11 *972:B2 0.000125724
13 *3:11 *1071:D 0
14 *3:11 *1073:RESET_B 0.000134359
15 *3:11 *1111:CLK 0
16 *3:11 *1114:RESET_B 9.40388e-05
17 *3:11 *1135:CLK 0
18 *3:11 *1135:D 6.42338e-05
19 *3:11 *1138:CLK 0
20 *3:11 *1164:A 8.08376e-05
21 *3:11 *1167:A 0
22 *3:11 *1170:A 0
23 *3:11 *60:206 0.000340066
24 *3:11 *60:215 0.000129868
25 *3:11 *60:228 0.000386703
26 *3:11 *94:61 0
27 *3:11 *94:65 0
28 *3:11 *255:10 0
29 *3:11 *272:24 5.48488e-05
30 *3:11 *274:10 0.000128146
31 *3:11 *274:16 5.74219e-05
32 *3:23 *946:A1 5.62995e-05
33 *3:23 *948:A 5.7661e-06
34 *3:23 *970:B 7.48091e-05
35 *3:23 *1098:D 5.71472e-05
36 *3:23 *1137:CLK 5.04589e-05
37 *3:23 *1137:D 0.000140933
38 *3:23 *1138:D 2.89114e-05
39 *3:23 *1167:A 0.000137983
40 *3:23 *38:16 1.84754e-05
41 *3:23 *261:10 0.000162772
42 *3:23 *261:94 1.74352e-05
*RES
1 clk_div[1] *3:11 46.6607 
2 *3:11 *3:23 16.3393 
3 *3:23 *949:B 23.2643 
4 *3:23 *948:B 9.3 
*END

*D_NET *4 0.001347
*CONN
*P por_fb_in I
*I *820:A I *D sky130_fd_sc_hd__clkinv_2
*CAP
1 por_fb_in 0.000673501
2 *820:A 0.000673501
*RES
1 por_fb_in *820:A 26.9071 
*END

*D_NET *5 0.0042534
*CONN
*P por_fb_out O
*I *817:A I *D sky130_fd_sc_hd__clkbuf_8
*I *816:X O *D sky130_fd_sc_hd__clkbuf_8
*CAP
1 por_fb_out 0.00161312
2 *817:A 0
3 *816:X 0.000339902
4 *5:12 0.00195302
5 *5:12 *1083:CLK 0.000347354
6 *5:12 *1083:D 0
*RES
1 *816:X *5:12 25.7464 
2 *5:12 por_fb_out 34.6429 
3 *5:12 *817:A 9.3 
*END

*D_NET *6 0.000591129
*CONN
*P por_n O
*I *757:HI O *D sky130_fd_sc_hd__conb_1
*CAP
1 por_n 0.000295565
2 *757:HI 0.000295565
*RES
1 *757:HI por_n 21.1554 
*END

*D_NET *7 0.000783891
*CONN
*P rst_n O
*I *1179:X O *D sky130_fd_sc_hd__clkbuf_2
*CAP
1 rst_n 0.000391945
2 *1179:X 0.000391945
*RES
1 *1179:X rst_n 21.6571 
*END

*D_NET *8 0.00105676
*CONN
*P sel_mux0 I
*I *1171:A I *D sky130_fd_sc_hd__buf_1
*CAP
1 sel_mux0 0.000528378
2 *1171:A 0.000528378
*RES
1 sel_mux0 *1171:A 24.7459 
*END

*D_NET *9 0.000638964
*CONN
*P sel_mux1 I
*I *1172:A I *D sky130_fd_sc_hd__buf_1
*CAP
1 sel_mux1 0.000319482
2 *1172:A 0.000319482
*RES
1 sel_mux1 *1172:A 21.4589 
*END

*D_NET *10 0.000939776
*CONN
*P sel_mux2 I
*I *1173:A I *D sky130_fd_sc_hd__buf_1
*CAP
1 sel_mux2 0.000420716
2 *1173:A 0.000420716
3 *1173:A *1174:A 9.83442e-05
*RES
1 sel_mux2 *1173:A 22.5674 
*END

*D_NET *11 0.00127586
*CONN
*P sel_rosc[0] I
*I *1174:A I *D sky130_fd_sc_hd__buf_1
*CAP
1 sel_rosc[0] 0.000588757
2 *1174:A 0.000588757
3 *1173:A *1174:A 9.83442e-05
*RES
1 sel_rosc[0] *1174:A 25.0321 
*END

*D_NET *12 0.000813598
*CONN
*P sel_rosc[1] I
*I *1175:A I *D sky130_fd_sc_hd__buf_1
*CAP
1 sel_rosc[1] 0.000406799
2 *1175:A 0.000406799
*RES
1 sel_rosc[1] *1175:A 21.9607 
*END

*D_NET *15 0.000620836
*CONN
*P xclk0 I
*I *1176:A I *D sky130_fd_sc_hd__buf_1
*CAP
1 xclk0 0.000310418
2 *1176:A 0.000310418
3 *1176:A *1141:CLK 0
*RES
1 xclk0 *1176:A 21.4589 
*END

*D_NET *16 0.00135681
*CONN
*P xclk1 I
*I *1177:A I *D sky130_fd_sc_hd__buf_1
*CAP
1 xclk1 0.000678405
2 *1177:A 0.000678405
*RES
1 xclk1 *1177:A 26.9607 
*END

*D_NET *17 0.000532999
*CONN
*P xrst_n I
*I *1178:A I *D sky130_fd_sc_hd__buf_1
*CAP
1 xrst_n 0.0002665
2 *1178:A 0.0002665
*RES
1 xrst_n *1178:A 20.031 
*END

*D_NET *18 0.00505248
*CONN
*I *1059:A I *D sky130_fd_sc_hd__inv_2
*I *992:A I *D sky130_fd_sc_hd__nand2_1
*I *993:A I *D sky130_fd_sc_hd__or2_1
*I *926:A I *D sky130_fd_sc_hd__inv_2
*I *945:A1 I *D sky130_fd_sc_hd__a22o_2
*I *1104:CLK I *D sky130_fd_sc_hd__dfrtp_1
*I *1092:Q O *D sky130_fd_sc_hd__dfxtp_1
*CAP
1 *1059:A 0.000264998
2 *992:A 0.000129966
3 *993:A 4.92911e-05
4 *926:A 0
5 *945:A1 8.85334e-05
6 *1104:CLK 0.000293076
7 *1092:Q 0
8 *18:43 0.000332045
9 *18:34 0.000177252
10 *18:10 0.000545783
11 *18:8 0.000756117
12 *18:4 0.000832477
13 *945:A1 *945:A2 5.7661e-06
14 *945:A1 *945:B1 0.000178593
15 *945:A1 *194:29 0.00029683
16 *992:A *994:B 2.56694e-05
17 *992:A *19:21 0
18 *993:A *994:B 2.89114e-05
19 *993:A *19:8 7.77751e-05
20 *1059:A *1098:CLK 0.000103267
21 *1059:A *1098:RESET_B 0
22 *1059:A *22:6 7.43578e-06
23 *1059:A *22:23 2.44318e-05
24 *1059:A *194:29 5.71472e-05
25 *1104:CLK *945:B1 1.76039e-05
26 *1104:CLK *955:A_N 5.56943e-05
27 *1104:CLK *1104:D 0
28 *1104:CLK *1105:RESET_B 8.16036e-05
29 *1104:CLK *258:67 7.50473e-05
30 *1104:CLK *258:79 0.000117378
31 *18:8 *1092:D 0.000168957
32 *18:10 *945:B1 4.78056e-05
33 *18:10 *1092:CLK 0.000146875
34 *18:34 *1092:CLK 5.59013e-05
35 *18:43 *1092:CLK 1.02504e-05
36 *2:15 *992:A 0
37 *2:15 *1104:CLK 0
38 *2:15 *18:10 0
39 *2:15 *18:34 0
40 *2:15 *18:43 0
*RES
1 *1092:Q *18:4 9.3 
2 *18:4 *18:8 11.1964 
3 *18:8 *18:10 3.76786 
4 *18:10 *1104:CLK 20.8536 
5 *18:10 *945:A1 17.1214 
6 *18:8 *18:34 0.732143 
7 *18:34 *926:A 13.8 
8 *18:34 *18:43 2.85714 
9 *18:43 *993:A 15.1571 
10 *18:43 *992:A 16.175 
11 *18:4 *1059:A 23.3357 
*END

*D_NET *19 0.00213293
*CONN
*I *930:A1 I *D sky130_fd_sc_hd__a22o_1
*I *1058:A I *D sky130_fd_sc_hd__inv_2
*I *1102:CLK I *D sky130_fd_sc_hd__dfrtp_1
*I *992:B I *D sky130_fd_sc_hd__nand2_1
*I *993:B I *D sky130_fd_sc_hd__or2_1
*I *1093:Q O *D sky130_fd_sc_hd__dfxtp_1
*CAP
1 *930:A1 0.000232047
2 *1058:A 5.10584e-05
3 *1102:CLK 3.21518e-05
4 *992:B 0.000110609
5 *993:B 0
6 *1093:Q 0.000198659
7 *19:37 0.000526933
8 *19:21 0.00024865
9 *19:15 0.00038334
10 *19:8 0.000232282
11 *930:A1 *1102:D 0
12 *930:A1 *154:12 2.79092e-05
13 *19:8 *994:B 1.15172e-05
14 *19:21 *994:B 0
15 *992:A *19:21 0
16 *993:A *19:8 7.77751e-05
*RES
1 *1093:Q *19:8 12.925 
2 *19:8 *993:B 9.3 
3 *19:8 *19:15 0.535714 
4 *19:15 *19:21 10.9464 
5 *19:21 *992:B 11.0679 
6 *19:21 *1102:CLK 9.83571 
7 *19:15 *19:37 3.82143 
8 *19:37 *1058:A 10.2643 
9 *19:37 *930:A1 23.1036 
*END

*D_NET *20 0.00297301
*CONN