*SPEF "ieee 1481-1999"
*DESIGN "MS_CLK_RST"
*DATE "11:11:11 Fri 11 11, 1111"
*VENDOR "OpenRCX"
*PROGRAM "Parallel Extraction"
*VERSION "1.0"
*DESIGN_FLOW "NAME_SCOPE LOCAL" "PIN_CAP NONE"
*DIVIDER /
*DELIMITER :
*BUS_DELIMITER []
*T_UNIT 1 NS
*C_UNIT 1 PF
*R_UNIT 1 OHM
*L_UNIT 1 HENRY

*NAME_MAP
*1 clk
*2 clk_div[0]
*3 clk_div[1]
*4 one
*5 por_fb_in
*6 por_fb_out
*7 por_n
*8 rst_n
*9 sel_mux0
*10 sel_mux1
*11 sel_mux2
*12 sel_rosc[0]
*13 sel_rosc[1]
*16 xclk0
*17 xclk1
*18 xrst_n
*19 zero
*20 CLKMUX\.clk1
*21 CLKMUX\.clk2
*22 CLKMUX\.clk3
*23 CLKMUX\.clko
*24 CLKMUX\.clko1
*25 CLKMUX\.m1\.Q1a
*26 CLKMUX\.m1\.Q1b
*27 CLKMUX\.m1\.Q2a
*28 CLKMUX\.m1\.Q2b
*29 CLKMUX\.m1\.q1a_in
*30 CLKMUX\.m1\.q2a_in
*31 CLKMUX\.m2\.Q1a
*32 CLKMUX\.m2\.Q1b
*33 CLKMUX\.m2\.Q2a
*34 CLKMUX\.m2\.Q2b
*35 CLKMUX\.m2\.q1a_in
*36 CLKMUX\.m2\.q2a_in
*37 CLKMUX\.m3\.Q1a
*38 CLKMUX\.m3\.Q1b
*39 CLKMUX\.m3\.Q2a
*40 CLKMUX\.m3\.Q2b
*41 CLKMUX\.m3\.q1a_in
*42 CLKMUX\.m3\.q2a_in
*43 CLKMUX0\.Q1a
*44 CLKMUX0\.Q1b
*45 CLKMUX0\.Q2a
*46 CLKMUX0\.Q2b
*47 CLKMUX0\.clko
*48 CLKMUX0\.q1a_in
*49 CLKMUX0\.q2a_in
*50 CLKMUX1\.Q1a
*51 CLKMUX1\.Q1b
*52 CLKMUX1\.Q2a
*53 CLKMUX1\.Q2b
*54 CLKMUX1\.clk1
*55 CLKMUX1\.q1a_in
*56 CLKMUX1\.q2a_in
*57 CLKMUX2\.Q1a
*58 CLKMUX2\.Q1b
*59 CLKMUX2\.Q2a
*60 CLKMUX2\.Q2b
*61 CLKMUX2\.q1a_in
*62 CLKMUX2\.q2a_in
*63 PoR\.CLKMUX\.clk0
*64 PoR\.CLKMUX\.m1\.Q1a
*65 PoR\.CLKMUX\.m1\.Q1b
*66 PoR\.CLKMUX\.m1\.Q2a
*67 PoR\.CLKMUX\.m1\.Q2b
*68 PoR\.CLKMUX\.m1\.q1a_in
*69 PoR\.CLKMUX\.m1\.q2a_in
*70 PoR\.CLKMUX\.m2\.Q1a
*71 PoR\.CLKMUX\.m2\.Q1b
*72 PoR\.CLKMUX\.m2\.Q2a
*73 PoR\.CLKMUX\.m2\.Q2b
*74 PoR\.CLKMUX\.m2\.q1a_in
*75 PoR\.CLKMUX\.m2\.q2a_in
*76 PoR\.CLKMUX\.m3\.Q1a
*77 PoR\.CLKMUX\.m3\.Q1b
*78 PoR\.CLKMUX\.m3\.Q2a
*79 PoR\.CLKMUX\.m3\.Q2b
*80 PoR\.CLKMUX\.m3\.q1a_in
*81 PoR\.CLKMUX\.m3\.q2a_in
*82 PoR\.ROSC_DLYINV_0\.Y
*83 PoR\.ROSC_DLYINV_0\.clkinv_out
*84 PoR\.ROSC_DLYINV_1\.Y
*85 PoR\.ROSC_DLYINV_1\.clkinv_out
*86 PoR\.ROSC_DLYINV_2\.Y
*87 PoR\.ROSC_DLYINV_2\.clkinv_out
*88 PoR\.ROSC_DLYINV_3\.Y
*89 PoR\.ROSC_DLYINV_3\.clkinv_out
*90 PoR\.ROSC_DLYINV_4\.Y
*91 PoR\.ROSC_DLYINV_4\.clkinv_out
*92 PoR\.ROSC_DLYINV_5\.Y
*93 PoR\.ROSC_DLYINV_5\.clkinv_out
*94 PoR\.clk_div\[1\]
*95 PoR\.clk_div\[2\]
*96 PoR\.clk_div\[3\]
*97 PoR\.clk_div\[4\]
*98 PoR\.clk_div\[5\]
*99 PoR\.clk_div\[6\]
*100 PoR\.clk_div\[7\]
*101 PoR\.clk_div\[8\]
*102 PoR\.cmp0
*103 PoR\.cmp1
*104 PoR\.cmp2
*105 PoR\.cmp3
*106 PoR\.dly\[7\]
*107 PoR\.dly\[8\]
*108 PoR\.shift_reg0\[0\]
*109 PoR\.shift_reg0\[10\]
*110 PoR\.shift_reg0\[11\]
*111 PoR\.shift_reg0\[12\]
*112 PoR\.shift_reg0\[13\]
*113 PoR\.shift_reg0\[14\]
*114 PoR\.shift_reg0\[15\]
*115 PoR\.shift_reg0\[1\]
*116 PoR\.shift_reg0\[2\]
*117 PoR\.shift_reg0\[3\]
*118 PoR\.shift_reg0\[4\]
*119 PoR\.shift_reg0\[5\]
*120 PoR\.shift_reg0\[6\]
*121 PoR\.shift_reg0\[7\]
*122 PoR\.shift_reg0\[8\]
*123 PoR\.shift_reg0\[9\]
*124 PoR\.shift_reg1\[0\]
*125 PoR\.shift_reg1\[10\]
*126 PoR\.shift_reg1\[11\]
*127 PoR\.shift_reg1\[12\]
*128 PoR\.shift_reg1\[13\]
*129 PoR\.shift_reg1\[14\]
*130 PoR\.shift_reg1\[15\]
*131 PoR\.shift_reg1\[1\]
*132 PoR\.shift_reg1\[2\]
*133 PoR\.shift_reg1\[3\]
*134 PoR\.shift_reg1\[4\]
*135 PoR\.shift_reg1\[5\]
*136 PoR\.shift_reg1\[6\]
*137 PoR\.shift_reg1\[7\]
*138 PoR\.shift_reg1\[8\]
*139 PoR\.shift_reg1\[9\]
*140 PoR\.shift_reg2\[0\]
*141 PoR\.shift_reg2\[10\]
*142 PoR\.shift_reg2\[11\]
*143 PoR\.shift_reg2\[12\]
*144 PoR\.shift_reg2\[13\]
*145 PoR\.shift_reg2\[14\]
*146 PoR\.shift_reg2\[15\]
*147 PoR\.shift_reg2\[1\]
*148 PoR\.shift_reg2\[2\]
*149 PoR\.shift_reg2\[3\]
*150 PoR\.shift_reg2\[4\]
*151 PoR\.shift_reg2\[5\]
*152 PoR\.shift_reg2\[6\]
*153 PoR\.shift_reg2\[7\]
*154 PoR\.shift_reg2\[8\]
*155 PoR\.shift_reg2\[9\]
*156 PoR\.shift_reg3\[0\]
*157 PoR\.shift_reg3\[10\]
*158 PoR\.shift_reg3\[11\]
*159 PoR\.shift_reg3\[12\]
*160 PoR\.shift_reg3\[13\]
*161 PoR\.shift_reg3\[14\]
*162 PoR\.shift_reg3\[15\]
*163 PoR\.shift_reg3\[1\]
*164 PoR\.shift_reg3\[2\]
*165 PoR\.shift_reg3\[3\]
*166 PoR\.shift_reg3\[4\]
*167 PoR\.shift_reg3\[5\]
*168 PoR\.shift_reg3\[6\]
*169 PoR\.shift_reg3\[7\]
*170 PoR\.shift_reg3\[8\]
*171 PoR\.shift_reg3\[9\]
*172 RST_SYNC\.rst_sync\[0\]
*173 RST_SYNC\.rst_sync\[1\]
*174 RST_SYNC\.rst_sync\[2\]
*175 _000_
*176 _002_
*177 _004_
*178 _006_
*179 _007_
*180 _008_
*181 _009_
*182 _010_
*183 _011_
*184 _012_
*185 _013_
*186 _014_
*187 _015_
*188 _016_
*189 _017_
*190 _018_
*191 _019_
*192 _020_
*193 _021_
*194 _022_
*195 _023_
*196 _024_
*197 _025_
*198 _026_
*199 _027_
*200 _028_
*201 _029_
*202 _031_
*203 _032_
*204 _033_
*205 _034_
*206 _035_
*207 _036_
*208 _038_
*209 _039_
*210 _040_
*211 _041_
*212 _042_
*213 _043_
*214 _045_
*215 _046_
*216 _047_
*217 _048_
*218 _049_
*219 _050_
*220 _051_
*221 _052_
*222 _053_
*223 _054_
*224 _055_
*225 _056_
*226 _057_
*227 _058_
*228 _059_
*229 _060_
*230 _061_
*231 _062_
*232 _063_
*233 _064_
*234 _065_
*235 _066_
*236 _067_
*237 _068_
*238 _069_
*239 _070_
*240 _071_
*241 _072_
*242 _073_
*243 _074_
*244 _075_
*245 _076_
*246 _077_
*247 _078_
*248 _079_
*249 _080_
*250 _081_
*251 _082_
*252 _083_
*253 _084_
*254 _085_
*255 _086_
*256 _087_
*257 _088_
*258 _089_
*259 _090_
*260 _091_
*261 _092_
*262 _093_
*263 _094_
*264 _095_
*265 _096_
*266 _097_
*267 _098_
*268 _099_
*269 _100_
*270 _101_
*271 _102_
*272 _103_
*273 _104_
*274 _105_
*275 _106_
*276 _107_
*277 _108_
*278 _109_
*279 _110_
*280 _111_
*281 _112_
*282 _113_
*283 _114_
*284 _115_
*285 _116_
*286 _117_
*287 _118_
*288 _119_
*289 _120_
*290 _121_
*291 _122_
*292 _123_
*293 _124_
*294 _125_
*295 _126_
*296 _127_
*297 _128_
*298 _129_
*299 _130_
*300 _131_
*301 _132_
*302 _133_
*303 _134_
*304 _135_
*305 _136_
*306 _137_
*307 _138_
*308 _139_
*309 _140_
*310 _141_
*311 _142_
*312 _143_
*313 _144_
*314 _145_
*315 _146_
*316 _147_
*317 _148_
*318 _149_
*319 _150_
*320 _151_
*321 _152_
*322 _153_
*323 _154_
*324 _155_
*325 _156_
*326 _157_
*327 _158_
*328 _159_
*329 _160_
*330 _161_
*331 _162_
*332 _163_
*333 _164_
*334 _165_
*335 clknet_0_CLKMUX\.clko
*336 clknet_0_CLKMUX\.clko1
*337 clknet_0_PoR\.clk_div\[8\]
*338 clknet_0__026_
*339 clknet_0__041_
*340 clknet_0__045_
*341 clknet_1_0__leaf_CLKMUX\.clko
*342 clknet_1_0__leaf_CLKMUX\.clko1
*343 clknet_1_0__leaf__026_
*344 clknet_1_0__leaf__041_
*345 clknet_1_0__leaf__045_
*346 clknet_1_1__leaf_CLKMUX\.clko
*347 clknet_1_1__leaf_CLKMUX\.clko1
*348 clknet_1_1__leaf__026_
*349 clknet_1_1__leaf__041_
*350 clknet_1_1__leaf__045_
*351 clknet_3_0__leaf_PoR\.clk_div\[8\]
*352 clknet_3_1__leaf_PoR\.clk_div\[8\]
*353 clknet_3_2__leaf_PoR\.clk_div\[8\]
*354 clknet_3_3__leaf_PoR\.clk_div\[8\]
*355 clknet_3_4__leaf_PoR\.clk_div\[8\]
*356 clknet_3_5__leaf_PoR\.clk_div\[8\]
*357 clknet_3_6__leaf_PoR\.clk_div\[8\]
*358 clknet_3_7__leaf_PoR\.clk_div\[8\]
*359 en_xclk_cntr
*360 mon_cntr\[0\]
*361 mon_cntr\[1\]
*362 mon_cntr\[2\]
*363 mon_cntr\[3\]
*364 mon_cntr\[4\]
*365 mon_cntr\[5\]
*366 mon_cntr\[6\]
*367 mon_cntr\[7\]
*368 net1
*369 net10
*370 net11
*371 net12
*372 net13
*373 net14
*374 net15
*375 net16
*376 net17
*377 net18
*378 net19
*379 net2
*380 net20
*381 net21
*382 net22
*383 net23
*384 net24
*385 net25
*386 net26
*387 net27
*388 net28
*389 net29
*390 net3
*391 net30
*392 net31
*393 net32
*394 net33
*395 net34
*396 net35
*397 net36
*398 net37
*399 net38
*400 net39
*401 net4
*402 net40
*403 net41
*404 net42
*405 net43
*406 net44
*407 net45
*408 net46
*409 net47
*410 net48
*411 net49
*412 net5
*413 net50
*414 net51
*415 net52
*416 net53
*417 net54
*418 net56
*419 net6
*420 net7
*421 net8
*422 net9
*423 xclk_cntr\[0\]
*424 xclk_cntr\[1\]
*425 xclk_cntr\[2\]
*426 xclk_cntr\[3\]
*427 xclk_cntr\[4\]
*428 xclk_cntr\[5\]
*429 xclk_cntr\[6\]
*430 xclk_cntr\[7\]
*431 xclk_cntr\[8\]
*432 xclk_mon_rst_n
*433 xclk_sync\[0\]
*434 xclk_sync\[1\]
*435 xclk_sync\[2\]
*436 ANTENNA__222__A1
*437 ANTENNA__325__1_A
*438 ANTENNA__361__CLK
*439 ANTENNA__362__CLK
*440 ANTENNA__363__CLK
*441 ANTENNA__364__CLK
*442 ANTENNA__365__CLK
*443 ANTENNA__366__CLK
*444 ANTENNA__367__CLK
*445 ANTENNA__368__CLK
*446 ANTENNA__369__CLK
*447 ANTENNA__370__CLK
*448 ANTENNA__371__CLK
*449 ANTENNA__372__CLK
*450 ANTENNA__373__CLK
*451 ANTENNA__396__CLK
*452 ANTENNA__404__CLK
*453 ANTENNA__405__CLK
*454 ANTENNA__406__CLK
*455 ANTENNA__407__CLK
*456 ANTENNA__408__CLK
*457 ANTENNA__409__CLK
*458 ANTENNA__410__CLK
*459 ANTENNA__411__CLK
*460 ANTENNA__412__CLK
*461 ANTENNA__417__CLK
*462 ANTENNA__418__CLK
*463 ANTENNA__419__CLK
*464 ANTENNA__420__CLK
*465 ANTENNA__421__CLK
*466 ANTENNA__422__CLK
*467 ANTENNA__423__CLK
*468 ANTENNA__424__CLK
*469 FILLER_0_0_105
*470 FILLER_0_0_125
*471 FILLER_0_0_134
*472 FILLER_0_0_138
*473 FILLER_0_0_141
*474 FILLER_0_0_15
*475 FILLER_0_0_153
*476 FILLER_0_0_161
*477 FILLER_0_0_167
*478 FILLER_0_0_169
*479 FILLER_0_0_181
*480 FILLER_0_0_193
*481 FILLER_0_0_197
*482 FILLER_0_0_209
*483 FILLER_0_0_27
*484 FILLER_0_0_29
*485 FILLER_0_0_3
*486 FILLER_0_0_41
*487 FILLER_0_0_48
*488 FILLER_0_0_57
*489 FILLER_0_0_63
*490 FILLER_0_10_137
*491 FILLER_0_10_141
*492 FILLER_0_10_149
*493 FILLER_0_10_16
*494 FILLER_0_10_210
*495 FILLER_0_10_24
*496 FILLER_0_10_49
*497 FILLER_0_11_15
*498 FILLER_0_11_161
*499 FILLER_0_11_167
*500 FILLER_0_11_206
*501 FILLER_0_11_210
*502 FILLER_0_11_27
*503 FILLER_0_11_3
*504 FILLER_0_11_45
*505 FILLER_0_11_55
*506 FILLER_0_11_71
*507 FILLER_0_12_13
*508 FILLER_0_12_137
*509 FILLER_0_12_141
*510 FILLER_0_12_149
*511 FILLER_0_12_168
*512 FILLER_0_12_176
*513 FILLER_0_12_189
*514 FILLER_0_12_195
*515 FILLER_0_12_197
*516 FILLER_0_12_209
*517 FILLER_0_12_25
*518 FILLER_0_12_29
*519 FILLER_0_12_3
*520 FILLER_0_12_37
*521 FILLER_0_12_44
*522 FILLER_0_12_51
*523 FILLER_0_12_59
*524 FILLER_0_12_64
*525 FILLER_0_12_76
*526 FILLER_0_12_83
*527 FILLER_0_12_89
*528 FILLER_0_13_104
*529 FILLER_0_13_11
*530 FILLER_0_13_113
*531 FILLER_0_13_119
*532 FILLER_0_13_126
*533 FILLER_0_13_138
*534 FILLER_0_13_144
*535 FILLER_0_13_162
*536 FILLER_0_13_169
*537 FILLER_0_13_17
*538 FILLER_0_13_21
*539 FILLER_0_13_25
*540 FILLER_0_13_3
*541 FILLER_0_13_46
*542 FILLER_0_13_55
*543 FILLER_0_13_76
*544 FILLER_0_13_94
*545 FILLER_0_14_101
*546 FILLER_0_14_105
*547 FILLER_0_14_141
*548 FILLER_0_14_161
*549 FILLER_0_14_169
*550 FILLER_0_14_197
*551 FILLER_0_14_205
*552 FILLER_0_14_3
*553 FILLER_0_14_57
*554 FILLER_0_14_7
*555 FILLER_0_14_82
*556 FILLER_0_14_90
*557 FILLER_0_14_97
*558 FILLER_0_15_102
*559 FILLER_0_15_117
*560 FILLER_0_15_13
*561 FILLER_0_15_159
*562 FILLER_0_15_167
*563 FILLER_0_15_17
*564 FILLER_0_15_210
*565 FILLER_0_15_3
*566 FILLER_0_15_38
*567 FILLER_0_16_137
*568 FILLER_0_16_161
*569 FILLER_0_16_18
*570 FILLER_0_16_190
*571 FILLER_0_16_203
*572 FILLER_0_16_26
*573 FILLER_0_16_29
*574 FILLER_0_16_41
*575 FILLER_0_16_6
*576 FILLER_0_16_65
*577 FILLER_0_16_69
*578 FILLER_0_16_72
*579 FILLER_0_16_85
*580 FILLER_0_17_105
*581 FILLER_0_17_109
*582 FILLER_0_17_113
*583 FILLER_0_17_156
*584 FILLER_0_17_165
*585 FILLER_0_17_179
*586 FILLER_0_17_191
*587 FILLER_0_17_23
*588 FILLER_0_17_29
*589 FILLER_0_17_41
*590 FILLER_0_17_53
*591 FILLER_0_17_57
*592 FILLER_0_17_69
*593 FILLER_0_17_77
*594 FILLER_0_17_83
*595 FILLER_0_17_91
*596 FILLER_0_17_97
*597 FILLER_0_18_105
*598 FILLER_0_18_117
*599 FILLER_0_18_125
*600 FILLER_0_18_134
*601 FILLER_0_18_175
*602 FILLER_0_18_208
*603 FILLER_0_18_3
*604 FILLER_0_18_37
*605 FILLER_0_18_49
*606 FILLER_0_18_61
*607 FILLER_0_18_73
*608 FILLER_0_18_85
*609 FILLER_0_18_93
*610 FILLER_0_19_103
*611 FILLER_0_19_119
*612 FILLER_0_19_137
*613 FILLER_0_19_15
*614 FILLER_0_19_164
*615 FILLER_0_19_186
*616 FILLER_0_19_3
*617 FILLER_0_19_66
*618 FILLER_0_19_72
*619 FILLER_0_1_100
*620 FILLER_0_1_111
*621 FILLER_0_1_15
*622 FILLER_0_1_164
*623 FILLER_0_1_169
*624 FILLER_0_1_181
*625 FILLER_0_1_193
*626 FILLER_0_1_205
*627 FILLER_0_1_23
*628 FILLER_0_1_3
*629 FILLER_0_1_44
*630 FILLER_0_1_57
*631 FILLER_0_1_69
*632 FILLER_0_1_77
*633 FILLER_0_20_11
*634 FILLER_0_20_131
*635 FILLER_0_20_141
*636 FILLER_0_20_16
*637 FILLER_0_20_160
*638 FILLER_0_20_168
*639 FILLER_0_20_186
*640 FILLER_0_20_194
*641 FILLER_0_20_197
*642 FILLER_0_20_209
*643 FILLER_0_20_27
*644 FILLER_0_20_29
*645 FILLER_0_20_3
*646 FILLER_0_20_77
*647 FILLER_0_20_83
*648 FILLER_0_20_90
*649 FILLER_0_21_103
*650 FILLER_0_21_111
*651 FILLER_0_21_133
*652 FILLER_0_21_145
*653 FILLER_0_21_15
*654 FILLER_0_21_166
*655 FILLER_0_21_189
*656 FILLER_0_21_207
*657 FILLER_0_21_3
*658 FILLER_0_21_49
*659 FILLER_0_21_85
*660 FILLER_0_21_89
*661 FILLER_0_21_99
*662 FILLER_0_22_106
*663 FILLER_0_22_110
*664 FILLER_0_22_128
*665 FILLER_0_22_141
*666 FILLER_0_22_153
*667 FILLER_0_22_177
*668 FILLER_0_22_197
*669 FILLER_0_22_209
*670 FILLER_0_22_29
*671 FILLER_0_22_3
*672 FILLER_0_22_41
*673 FILLER_0_22_85
*674 FILLER_0_23_107
*675 FILLER_0_23_111
*676 FILLER_0_23_113
*677 FILLER_0_23_133
*678 FILLER_0_23_141
*679 FILLER_0_23_159
*680 FILLER_0_23_167
*681 FILLER_0_23_169
*682 FILLER_0_23_181
*683 FILLER_0_23_206
*684 FILLER_0_23_210
*685 FILLER_0_23_23
*686 FILLER_0_23_54
*687 FILLER_0_23_77
*688 FILLER_0_23_83
*689 FILLER_0_23_86
*690 FILLER_0_23_92
*691 FILLER_0_24_109
*692 FILLER_0_24_11
*693 FILLER_0_24_165
*694 FILLER_0_24_173
*695 FILLER_0_24_191
*696 FILLER_0_24_195
*697 FILLER_0_24_197
*698 FILLER_0_24_209
*699 FILLER_0_24_23
*700 FILLER_0_24_27
*701 FILLER_0_24_29
*702 FILLER_0_24_3
*703 FILLER_0_24_36
*704 FILLER_0_24_48
*705 FILLER_0_24_56
*706 FILLER_0_24_67
*707 FILLER_0_24_7
*708 FILLER_0_24_79
*709 FILLER_0_24_83
*710 FILLER_0_24_85
*711 FILLER_0_24_97
*712 FILLER_0_25_101
*713 FILLER_0_25_109
*714 FILLER_0_25_113
*715 FILLER_0_25_125
*716 FILLER_0_25_18
*717 FILLER_0_25_186
*718 FILLER_0_25_207
*719 FILLER_0_25_28
*720 FILLER_0_25_32
*721 FILLER_0_25_35
*722 FILLER_0_25_44
*723 FILLER_0_25_57
*724 FILLER_0_25_69
*725 FILLER_0_26_126
*726 FILLER_0_26_138
*727 FILLER_0_26_141
*728 FILLER_0_26_149
*729 FILLER_0_26_164
*730 FILLER_0_26_176
*731 FILLER_0_26_187
*732 FILLER_0_26_204
*733 FILLER_0_26_210
*734 FILLER_0_26_25
*735 FILLER_0_26_34
*736 FILLER_0_26_7
*737 FILLER_0_26_73
*738 FILLER_0_26_88
*739 FILLER_0_27_107
*740 FILLER_0_27_111
*741 FILLER_0_27_113
*742 FILLER_0_27_131
*743 FILLER_0_27_142
*744 FILLER_0_27_154
*745 FILLER_0_27_166
*746 FILLER_0_27_169
*747 FILLER_0_27_189
*748 FILLER_0_27_193
*749 FILLER_0_27_3
*750 FILLER_0_27_57
*751 FILLER_0_27_61
*752 FILLER_0_27_83
*753 FILLER_0_27_94
*754 FILLER_0_27_98
*755 FILLER_0_28_137
*756 FILLER_0_28_141
*757 FILLER_0_28_164
*758 FILLER_0_28_176
*759 FILLER_0_28_184
*760 FILLER_0_28_203
*761 FILLER_0_28_24
*762 FILLER_0_28_3
*763 FILLER_0_28_40
*764 FILLER_0_28_52
*765 FILLER_0_28_64
*766 FILLER_0_28_76
*767 FILLER_0_28_85
*768 FILLER_0_28_93
*769 FILLER_0_29_100
*770 FILLER_0_29_113
*771 FILLER_0_29_121
*772 FILLER_0_29_14
*773 FILLER_0_29_157
*774 FILLER_0_29_165
*775 FILLER_0_29_174
*776 FILLER_0_29_185
*777 FILLER_0_29_189
*778 FILLER_0_29_207
*779 FILLER_0_29_26
*780 FILLER_0_29_3
*781 FILLER_0_29_38
*782 FILLER_0_29_50
*783 FILLER_0_29_57
*784 FILLER_0_29_61
*785 FILLER_0_29_64
*786 FILLER_0_29_76
*787 FILLER_0_29_82
*788 FILLER_0_29_9
*789 FILLER_0_29_96
*790 FILLER_0_2_115
*791 FILLER_0_2_15
*792 FILLER_0_2_161
*793 FILLER_0_2_173
*794 FILLER_0_2_185
*795 FILLER_0_2_193
*796 FILLER_0_2_197
*797 FILLER_0_2_209
*798 FILLER_0_2_27
*799 FILLER_0_2_29
*800 FILLER_0_2_3
*801 FILLER_0_2_51
*802 FILLER_0_2_63
*803 FILLER_0_2_85
*804 FILLER_0_2_98
*805 FILLER_0_30_111
*806 FILLER_0_30_131
*807 FILLER_0_30_139
*808 FILLER_0_30_141
*809 FILLER_0_30_153
*810 FILLER_0_30_177
*811 FILLER_0_30_197
*812 FILLER_0_30_201
*813 FILLER_0_30_209
*814 FILLER_0_30_22
*815 FILLER_0_30_29
*816 FILLER_0_30_3
*817 FILLER_0_30_41
*818 FILLER_0_30_63
*819 FILLER_0_30_85
*820 FILLER_0_30_9
*821 FILLER_0_31_101
*822 FILLER_0_31_110
*823 FILLER_0_31_138
*824 FILLER_0_31_150
*825 FILLER_0_31_162
*826 FILLER_0_31_206
*827 FILLER_0_31_210
*828 FILLER_0_31_3
*829 FILLER_0_31_35
*830 FILLER_0_31_74
*831 FILLER_0_32_100
*832 FILLER_0_32_112
*833 FILLER_0_32_137
*834 FILLER_0_32_146
*835 FILLER_0_32_15
*836 FILLER_0_32_154
*837 FILLER_0_32_197
*838 FILLER_0_32_209
*839 FILLER_0_32_27
*840 FILLER_0_32_3
*841 FILLER_0_32_33
*842 FILLER_0_32_45
*843 FILLER_0_32_51
*844 FILLER_0_32_69
*845 FILLER_0_32_77
*846 FILLER_0_32_81
*847 FILLER_0_33_101
*848 FILLER_0_33_109
*849 FILLER_0_33_113
*850 FILLER_0_33_138
*851 FILLER_0_33_146
*852 FILLER_0_33_15
*853 FILLER_0_33_164
*854 FILLER_0_33_203
*855 FILLER_0_33_27
*856 FILLER_0_33_3
*857 FILLER_0_33_38
*858 FILLER_0_33_50
*859 FILLER_0_33_57
*860 FILLER_0_34_117
*861 FILLER_0_34_141
*862 FILLER_0_34_15
*863 FILLER_0_34_153
*864 FILLER_0_34_165
*865 FILLER_0_34_184
*866 FILLER_0_34_197
*867 FILLER_0_34_209
*868 FILLER_0_34_27
*869 FILLER_0_34_29
*870 FILLER_0_34_3
*871 FILLER_0_34_35
*872 FILLER_0_34_40
*873 FILLER_0_34_48
*874 FILLER_0_34_78
*875 FILLER_0_34_82
*876 FILLER_0_34_85
*877 FILLER_0_34_89
*878 FILLER_0_34_93
*879 FILLER_0_34_97
*880 FILLER_0_35_108
*881 FILLER_0_35_113
*882 FILLER_0_35_125
*883 FILLER_0_35_137
*884 FILLER_0_35_145
*885 FILLER_0_35_15
*886 FILLER_0_35_157
*887 FILLER_0_35_165
*888 FILLER_0_35_169
*889 FILLER_0_35_181
*890 FILLER_0_35_189
*891 FILLER_0_35_195
*892 FILLER_0_35_197
*893 FILLER_0_35_205
*894 FILLER_0_35_27
*895 FILLER_0_35_3
*896 FILLER_0_35_39
*897 FILLER_0_35_51
*898 FILLER_0_35_55
*899 FILLER_0_35_57
*900 FILLER_0_35_71
*901 FILLER_0_35_83
*902 FILLER_0_35_85
*903 FILLER_0_35_93
*904 FILLER_0_3_129
*905 FILLER_0_3_15
*906 FILLER_0_3_150
*907 FILLER_0_3_162
*908 FILLER_0_3_169
*909 FILLER_0_3_181
*910 FILLER_0_3_193
*911 FILLER_0_3_205
*912 FILLER_0_3_27
*913 FILLER_0_3_3
*914 FILLER_0_3_34
*915 FILLER_0_3_46
*916 FILLER_0_3_54
*917 FILLER_0_3_57
*918 FILLER_0_3_69
*919 FILLER_0_3_94
*920 FILLER_0_4_126
*921 FILLER_0_4_132
*922 FILLER_0_4_139
*923 FILLER_0_4_141
*924 FILLER_0_4_15
*925 FILLER_0_4_153
*926 FILLER_0_4_165
*927 FILLER_0_4_177
*928 FILLER_0_4_189
*929 FILLER_0_4_195
*930 FILLER_0_4_197
*931 FILLER_0_4_209
*932 FILLER_0_4_27
*933 FILLER_0_4_29
*934 FILLER_0_4_3
*935 FILLER_0_4_39
*936 FILLER_0_4_43
*937 FILLER_0_4_48
*938 FILLER_0_4_59
*939 FILLER_0_4_71
*940 FILLER_0_4_83
*941 FILLER_0_4_85
*942 FILLER_0_5_111
*943 FILLER_0_5_148
*944 FILLER_0_5_160
*945 FILLER_0_5_169
*946 FILLER_0_5_181
*947 FILLER_0_5_193
*948 FILLER_0_5_205
*949 FILLER_0_5_27
*950 FILLER_0_5_3
*951 FILLER_0_5_57
*952 FILLER_0_5_79
*953 FILLER_0_6_178
*954 FILLER_0_6_190
*955 FILLER_0_6_197
*956 FILLER_0_6_209
*957 FILLER_0_6_26
*958 FILLER_0_6_29
*959 FILLER_0_6_41
*960 FILLER_0_6_72
*961 FILLER_0_7_100
*962 FILLER_0_7_106
*963 FILLER_0_7_121
*964 FILLER_0_7_165
*965 FILLER_0_7_203
*966 FILLER_0_7_3
*967 FILLER_0_7_38
*968 FILLER_0_7_50
*969 FILLER_0_8_105
*970 FILLER_0_8_110
*971 FILLER_0_8_122
*972 FILLER_0_8_134
*973 FILLER_0_8_141
*974 FILLER_0_8_15
*975 FILLER_0_8_177
*976 FILLER_0_8_197
*977 FILLER_0_8_209
*978 FILLER_0_8_27
*979 FILLER_0_8_29
*980 FILLER_0_8_3
*981 FILLER_0_8_72
*982 FILLER_0_9_11
*983 FILLER_0_9_125
*984 FILLER_0_9_137
*985 FILLER_0_9_145
*986 FILLER_0_9_164
*987 FILLER_0_9_169
*988 FILLER_0_9_176
*989 FILLER_0_9_188
*990 FILLER_0_9_207
*991 FILLER_0_9_3
*992 FILLER_0_9_34
*993 FILLER_0_9_48
*994 FILLER_0_9_65
*995 FILLER_0_9_97
*996 PHY_EDGE_ROW_0_Left_36
*997 PHY_EDGE_ROW_0_Right_0
*998 PHY_EDGE_ROW_10_Left_46
*999 PHY_EDGE_ROW_10_Right_10
*1000 PHY_EDGE_ROW_11_Left_47
*1001 PHY_EDGE_ROW_11_Right_11
*1002 PHY_EDGE_ROW_12_Left_48
*1003 PHY_EDGE_ROW_12_Right_12
*1004 PHY_EDGE_ROW_13_Left_49
*1005 PHY_EDGE_ROW_13_Right_13
*1006 PHY_EDGE_ROW_14_Left_50
*1007 PHY_EDGE_ROW_14_Right_14
*1008 PHY_EDGE_ROW_15_Left_51
*1009 PHY_EDGE_ROW_15_Right_15
*1010 PHY_EDGE_ROW_16_Left_52
*1011 PHY_EDGE_ROW_16_Right_16
*1012 PHY_EDGE_ROW_17_Left_53
*1013 PHY_EDGE_ROW_17_Right_17
*1014 PHY_EDGE_ROW_18_Left_54
*1015 PHY_EDGE_ROW_18_Right_18
*1016 PHY_EDGE_ROW_19_Left_55
*1017 PHY_EDGE_ROW_19_Right_19
*1018 PHY_EDGE_ROW_1_Left_37
*1019 PHY_EDGE_ROW_1_Right_1
*1020 PHY_EDGE_ROW_20_Left_56
*1021 PHY_EDGE_ROW_20_Right_20
*1022 PHY_EDGE_ROW_21_Left_57
*1023 PHY_EDGE_ROW_21_Right_21
*1024 PHY_EDGE_ROW_22_Left_58
*1025 PHY_EDGE_ROW_22_Right_22
*1026 PHY_EDGE_ROW_23_Left_59
*1027 PHY_EDGE_ROW_23_Right_23
*1028 PHY_EDGE_ROW_24_Left_60
*1029 PHY_EDGE_ROW_24_Right_24
*1030 PHY_EDGE_ROW_25_Left_61
*1031 PHY_EDGE_ROW_25_Right_25
*1032 PHY_EDGE_ROW_26_Left_62
*1033 PHY_EDGE_ROW_26_Right_26
*1034 PHY_EDGE_ROW_27_Left_63
*1035 PHY_EDGE_ROW_27_Right_27
*1036 PHY_EDGE_ROW_28_Left_64
*1037 PHY_EDGE_ROW_28_Right_28
*1038 PHY_EDGE_ROW_29_Left_65
*1039 PHY_EDGE_ROW_29_Right_29
*1040 PHY_EDGE_ROW_2_Left_38
*1041 PHY_EDGE_ROW_2_Right_2
*1042 PHY_EDGE_ROW_30_Left_66
*1043 PHY_EDGE_ROW_30_Right_30
*1044 PHY_EDGE_ROW_31_Left_67
*1045 PHY_EDGE_ROW_31_Right_31
*1046 PHY_EDGE_ROW_32_Left_68
*1047 PHY_EDGE_ROW_32_Right_32
*1048 PHY_EDGE_ROW_33_Left_69
*1049 PHY_EDGE_ROW_33_Right_33
*1050 PHY_EDGE_ROW_34_Left_70
*1051 PHY_EDGE_ROW_34_Right_34
*1052 PHY_EDGE_ROW_35_Left_71
*1053 PHY_EDGE_ROW_35_Right_35
*1054 PHY_EDGE_ROW_3_Left_39
*1055 PHY_EDGE_ROW_3_Right_3
*1056 PHY_EDGE_ROW_4_Left_40
*1057 PHY_EDGE_ROW_4_Right_4
*1058 PHY_EDGE_ROW_5_Left_41
*1059 PHY_EDGE_ROW_5_Right_5
*1060 PHY_EDGE_ROW_6_Left_42
*1061 PHY_EDGE_ROW_6_Right_6
*1062 PHY_EDGE_ROW_7_Left_43
*1063 PHY_EDGE_ROW_7_Right_7
*1064 PHY_EDGE_ROW_8_Left_44
*1065 PHY_EDGE_ROW_8_Right_8
*1066 PHY_EDGE_ROW_9_Left_45
*1067 PHY_EDGE_ROW_9_Right_9
*1068 PoR\.ROSC_CLKBUF_0
*1069 PoR\.ROSC_CLKBUF_1
*1070 PoR\.ROSC_DLYBUF_6
*1071 PoR\.ROSC_DLYINV_0\.clkdlybuf
*1072 PoR\.ROSC_DLYINV_0\.clkinv
*1073 PoR\.ROSC_DLYINV_1\.clkdlybuf
*1074 PoR\.ROSC_DLYINV_1\.clkinv
*1075 PoR\.ROSC_DLYINV_2\.clkdlybuf
*1076 PoR\.ROSC_DLYINV_2\.clkinv
*1077 PoR\.ROSC_DLYINV_3\.clkdlybuf
*1078 PoR\.ROSC_DLYINV_3\.clkinv
*1079 PoR\.ROSC_DLYINV_4\.clkdlybuf
*1080 PoR\.ROSC_DLYINV_4\.clkinv
*1081 PoR\.ROSC_DLYINV_5\.clkdlybuf
*1082 PoR\.ROSC_DLYINV_5\.clkinv
*1083 PoR\.ROSC_DLYINV_7
*1084 TAP_TAPCELL_ROW_0_72
*1085 TAP_TAPCELL_ROW_0_73
*1086 TAP_TAPCELL_ROW_0_74
*1087 TAP_TAPCELL_ROW_0_75
*1088 TAP_TAPCELL_ROW_0_76
*1089 TAP_TAPCELL_ROW_0_77
*1090 TAP_TAPCELL_ROW_0_78
*1091 TAP_TAPCELL_ROW_10_110
*1092 TAP_TAPCELL_ROW_10_111
*1093 TAP_TAPCELL_ROW_10_112
*1094 TAP_TAPCELL_ROW_10_113
*1095 TAP_TAPCELL_ROW_11_114
*1096 TAP_TAPCELL_ROW_11_115
*1097 TAP_TAPCELL_ROW_11_116
*1098 TAP_TAPCELL_ROW_12_117
*1099 TAP_TAPCELL_ROW_12_118
*1100 TAP_TAPCELL_ROW_12_119
*1101 TAP_TAPCELL_ROW_12_120
*1102 TAP_TAPCELL_ROW_13_121
*1103 TAP_TAPCELL_ROW_13_122
*1104 TAP_TAPCELL_ROW_13_123
*1105 TAP_TAPCELL_ROW_14_124
*1106 TAP_TAPCELL_ROW_14_125
*1107 TAP_TAPCELL_ROW_14_126
*1108 TAP_TAPCELL_ROW_14_127
*1109 TAP_TAPCELL_ROW_15_128
*1110 TAP_TAPCELL_ROW_15_129
*1111 TAP_TAPCELL_ROW_15_130
*1112 TAP_TAPCELL_ROW_16_131
*1113 TAP_TAPCELL_ROW_16_132
*1114 TAP_TAPCELL_ROW_16_133
*1115 TAP_TAPCELL_ROW_16_134
*1116 TAP_TAPCELL_ROW_17_135
*1117 TAP_TAPCELL_ROW_17_136
*1118 TAP_TAPCELL_ROW_17_137
*1119 TAP_TAPCELL_ROW_18_138
*1120 TAP_TAPCELL_ROW_18_139
*1121 TAP_TAPCELL_ROW_18_140
*1122 TAP_TAPCELL_ROW_18_141
*1123 TAP_TAPCELL_ROW_19_142
*1124 TAP_TAPCELL_ROW_19_143
*1125 TAP_TAPCELL_ROW_19_144
*1126 TAP_TAPCELL_ROW_1_79
*1127 TAP_TAPCELL_ROW_1_80
*1128 TAP_TAPCELL_ROW_1_81
*1129 TAP_TAPCELL_ROW_20_145
*1130 TAP_TAPCELL_ROW_20_146
*1131 TAP_TAPCELL_ROW_20_147
*1132 TAP_TAPCELL_ROW_20_148
*1133 TAP_TAPCELL_ROW_21_149
*1134 TAP_TAPCELL_ROW_21_150
*1135 TAP_TAPCELL_ROW_21_151
*1136 TAP_TAPCELL_ROW_22_152
*1137 TAP_TAPCELL_ROW_22_153
*1138 TAP_TAPCELL_ROW_22_154
*1139 TAP_TAPCELL_ROW_22_155
*1140 TAP_TAPCELL_ROW_23_156
*1141 TAP_TAPCELL_ROW_23_157
*1142 TAP_TAPCELL_ROW_23_158
*1143 TAP_TAPCELL_ROW_24_159
*1144 TAP_TAPCELL_ROW_24_160
*1145 TAP_TAPCELL_ROW_24_161
*1146 TAP_TAPCELL_ROW_24_162
*1147 TAP_TAPCELL_ROW_25_163
*1148 TAP_TAPCELL_ROW_25_164
*1149 TAP_TAPCELL_ROW_25_165
*1150 TAP_TAPCELL_ROW_26_166
*1151 TAP_TAPCELL_ROW_26_167
*1152 TAP_TAPCELL_ROW_26_168
*1153 TAP_TAPCELL_ROW_26_169
*1154 TAP_TAPCELL_ROW_27_170
*1155 TAP_TAPCELL_ROW_27_171
*1156 TAP_TAPCELL_ROW_27_172
*1157 TAP_TAPCELL_ROW_28_173
*1158 TAP_TAPCELL_ROW_28_174
*1159 TAP_TAPCELL_ROW_28_175
*1160 TAP_TAPCELL_ROW_28_176
*1161 TAP_TAPCELL_ROW_29_177
*1162 TAP_TAPCELL_ROW_29_178
*1163 TAP_TAPCELL_ROW_29_179
*1164 TAP_TAPCELL_ROW_2_82
*1165 TAP_TAPCELL_ROW_2_83
*1166 TAP_TAPCELL_ROW_2_84
*1167 TAP_TAPCELL_ROW_2_85
*1168 TAP_TAPCELL_ROW_30_180
*1169 TAP_TAPCELL_ROW_30_181
*1170 TAP_TAPCELL_ROW_30_182
*1171 TAP_TAPCELL_ROW_30_183
*1172 TAP_TAPCELL_ROW_31_184
*1173 TAP_TAPCELL_ROW_31_185
*1174 TAP_TAPCELL_ROW_31_186
*1175 TAP_TAPCELL_ROW_32_187
*1176 TAP_TAPCELL_ROW_32_188
*1177 TAP_TAPCELL_ROW_32_189
*1178 TAP_TAPCELL_ROW_32_190
*1179 TAP_TAPCELL_ROW_33_191
*1180 TAP_TAPCELL_ROW_33_192
*1181 TAP_TAPCELL_ROW_33_193
*1182 TAP_TAPCELL_ROW_34_194
*1183 TAP_TAPCELL_ROW_34_195
*1184 TAP_TAPCELL_ROW_34_196
*1185 TAP_TAPCELL_ROW_34_197
*1186 TAP_TAPCELL_ROW_35_198
*1187 TAP_TAPCELL_ROW_35_199
*1188 TAP_TAPCELL_ROW_35_200
*1189 TAP_TAPCELL_ROW_35_201
*1190 TAP_TAPCELL_ROW_35_202
*1191 TAP_TAPCELL_ROW_35_203
*1192 TAP_TAPCELL_ROW_35_204
*1193 TAP_TAPCELL_ROW_3_86
*1194 TAP_TAPCELL_ROW_3_87
*1195 TAP_TAPCELL_ROW_3_88
*1196 TAP_TAPCELL_ROW_4_89
*1197 TAP_TAPCELL_ROW_4_90
*1198 TAP_TAPCELL_ROW_4_91
*1199 TAP_TAPCELL_ROW_4_92
*1200 TAP_TAPCELL_ROW_5_93
*1201 TAP_TAPCELL_ROW_5_94
*1202 TAP_TAPCELL_ROW_5_95
*1203 TAP_TAPCELL_ROW_6_96
*1204 TAP_TAPCELL_ROW_6_97
*1205 TAP_TAPCELL_ROW_6_98
*1206 TAP_TAPCELL_ROW_6_99
*1207 TAP_TAPCELL_ROW_7_100
*1208 TAP_TAPCELL_ROW_7_101
*1209 TAP_TAPCELL_ROW_7_102
*1210 TAP_TAPCELL_ROW_8_103
*1211 TAP_TAPCELL_ROW_8_104
*1212 TAP_TAPCELL_ROW_8_105
*1213 TAP_TAPCELL_ROW_8_106
*1214 TAP_TAPCELL_ROW_9_107
*1215 TAP_TAPCELL_ROW_9_108
*1216 TAP_TAPCELL_ROW_9_109
*1217 _167_
*1218 _168_
*1219 _169_
*1220 _170_
*1221 _171_
*1222 _172_
*1223 _173_
*1224 _174_
*1225 _175_
*1226 _176_
*1227 _177_
*1228 _178_
*1229 _179_
*1230 _180_
*1231 _181_
*1232 _182_
*1233 _183_
*1234 _184_
*1235 _185_
*1236 _186_
*1237 _187_
*1238 _188_
*1239 _189_
*1240 _190_
*1241 _191_
*1242 _192_
*1243 _193_
*1244 _194_
*1245 _195_
*1246 _196_
*1247 _197_
*1248 _198_
*1249 _199_
*1250 _200_
*1251 _201_
*1252 _202_
*1253 _203_
*1254 _204_
*1255 _205_
*1256 _206_
*1257 _207_
*1258 _208_
*1259 _209_
*1260 _210_
*1261 _211_
*1262 _212_
*1263 _213_
*1264 _214_
*1265 _215_
*1266 _216_
*1267 _217_
*1268 _218_
*1269 _219_
*1270 _220_
*1271 _221_
*1272 _222_
*1273 _223__2
*1274 _224_
*1275 _225_
*1276 _226_
*1277 _227_
*1278 _228__3
*1279 _229_
*1280 _230_
*1281 _231_
*1282 _232_
*1283 _233_
*1284 _234__4
*1285 _235_
*1286 _236_
*1287 _237_
*1288 _238_
*1289 _239_
*1290 _240_
*1291 _241_
*1292 _242_
*1293 _243_
*1294 _244_
*1295 _245_
*1296 _246_
*1297 _247_
*1298 _248_
*1299 _249_
*1300 _250_
*1301 _251_
*1302 _252_
*1303 _253_
*1304 _254_
*1305 _255_
*1306 _256_
*1307 _257_
*1308 _258_
*1309 _259_
*1310 _260_
*1311 _261_
*1312 _262_
*1313 _263_
*1314 _264_
*1315 _265_
*1316 _266_
*1317 _267_
*1318 _268_
*1319 _269_
*1320 _270_
*1321 _271_
*1322 _272_
*1323 _273_
*1324 _274_
*1325 _275_
*1326 _276_
*1327 _277_
*1328 _278_
*1329 _279_
*1330 _280_
*1331 _281_
*1332 _282_
*1333 _283_
*1334 _284_
*1335 _285_
*1336 _286_
*1337 _287_
*1338 _288_
*1339 _289_
*1340 _290_
*1341 _291_
*1342 _292_
*1343 _293_
*1344 _294_
*1345 _295_
*1346 _296_
*1347 _297_
*1348 _298_
*1349 _299_
*1350 _300_
*1351 _301_
*1352 _302_
*1353 _303_
*1354 _304_
*1355 _305_
*1356 _306_
*1357 _307_
*1358 _308_
*1359 _309_
*1360 _310_
*1361 _311_
*1362 _312_
*1363 _313_
*1364 _314_
*1365 _315_
*1366 _316_
*1367 _317_
*1368 _318__5
*1369 _319_
*1370 _320_
*1371 _321_
*1372 _322_
*1373 _323_
*1374 _324_
*1375 _325__1
*1376 _326_
*1377 _327_
*1378 _328_
*1379 _329_
*1380 _330_
*1381 _331_
*1382 _332_
*1383 _333_
*1384 _334_
*1385 _335_
*1386 _336_
*1387 _337_
*1388 _338_
*1389 _339_
*1390 _340_
*1391 _341_
*1392 _342_
*1393 _343_
*1394 _344_
*1395 _345_
*1396 _346_
*1397 _347_
*1398 _348_
*1399 _349_
*1400 _350_
*1401 _351_
*1402 _352_
*1403 _353_
*1404 _354_
*1405 _355_
*1406 _356_
*1407 _357_
*1408 _358_
*1409 _359__6
*1410 _360_
*1411 _361_
*1412 _362_
*1413 _363_
*1414 _364_
*1415 _365_
*1416 _366_
*1417 _367_
*1418 _368_
*1419 _369_
*1420 _370_
*1421 _371_
*1422 _372_
*1423 _373_
*1424 _374_
*1425 _375_
*1426 _376_
*1427 _377_
*1428 _378_
*1429 _379_
*1430 _380_
*1431 _381_
*1432 _382_
*1433 _383_
*1434 _384_
*1435 _385_
*1436 _386_
*1437 _387_
*1438 _388_
*1439 _389_
*1440 _390_
*1441 _391_
*1442 _392_
*1443 _393_
*1444 _393__21
*1445 _394_
*1446 _395_
*1447 _396_
*1448 _397_
*1449 _398_
*1450 _399_
*1451 _400_
*1452 _401_
*1453 _402_
*1454 _403_
*1455 _404_
*1456 _405_
*1457 _406_
*1458 _407_
*1459 _408_
*1460 _409_
*1461 _410_
*1462 _411_
*1463 _412_
*1464 _413_
*1465 _414_
*1466 _415_
*1467 _416_
*1468 _417_
*1469 _418_
*1470 _419_
*1471 _420_
*1472 _421_
*1473 _422_
*1474 _423_
*1475 _424_
*1476 _425_
*1477 _426_
*1478 _427_
*1479 _428_
*1480 _429_
*1481 _430_
*1482 _431_
*1483 _432_
*1484 _433_
*1485 _434_
*1486 _435_
*1487 _436_
*1488 _437_
*1489 _438_
*1490 _439_
*1491 _440_
*1492 _441_
*1493 _442_
*1494 _443_
*1495 _444_
*1496 _445_
*1497 _446_
*1498 _447_
*1499 _448_
*1500 _449_
*1501 _450_
*1502 _451_
*1503 _452_
*1504 _453_
*1505 _454_
*1506 _455_
*1507 _456_
*1508 _457_
*1509 _458_
*1510 _459_
*1511 _460_
*1512 _461_
*1513 _462_
*1514 _463_
*1515 _464_
*1516 _465_
*1517 _466_
*1518 _467_
*1519 _468_
*1520 _469_
*1521 _470_
*1522 _471_
*1523 _472_
*1524 _473_
*1525 _474_
*1526 _475_
*1527 _476_
*1528 _477_
*1529 _478_
*1530 _479_
*1531 _480_
*1532 _481_
*1533 _482_
*1534 _483_
*1535 _484_
*1536 _485_
*1537 _486_
*1538 _487_
*1539 _488_
*1540 _489_
*1541 _490_
*1542 _491_
*1543 _492_
*1544 _493_
*1545 _494_
*1546 _495_
*1547 _496_
*1548 clkbuf
*1549 clkbuf_0_CLKMUX\.clko
*1550 clkbuf_0_CLKMUX\.clko1
*1551 clkbuf_0_PoR\.clk_div\[8\]
*1552 clkbuf_0__026_
*1553 clkbuf_0__041_
*1554 clkbuf_0__045_
*1555 clkbuf_1_0__f_CLKMUX\.clko
*1556 clkbuf_1_0__f_CLKMUX\.clko1
*1557 clkbuf_1_0__f__026_
*1558 clkbuf_1_0__f__041_
*1559 clkbuf_1_0__f__045_
*1560 clkbuf_1_1__f_CLKMUX\.clko