*SPEF "ieee 1481-1999"
*DESIGN "MS_CLK_RST"
*DATE "11:11:11 Fri 11 11, 1111"
*VENDOR "OpenRCX"
*PROGRAM "Parallel Extraction"
*VERSION "1.0"
*DESIGN_FLOW "NAME_SCOPE LOCAL" "PIN_CAP NONE"
*DIVIDER /
*DELIMITER :
*BUS_DELIMITER []
*T_UNIT 1 NS
*C_UNIT 1 PF
*R_UNIT 1 OHM
*L_UNIT 1 HENRY

*NAME_MAP
*1 clk
*2 clk_div[0]
*3 clk_div[1]
*4 por_fb_in
*5 por_fb_out
*6 net17
*7 rst_n
*8 sel_mux0
*9 sel_mux1
*10 sel_mux2
*11 sel_rosc[0]
*12 sel_rosc[1]
*15 xclk0
*16 xclk1
*17 xrst_n
*18 CLKMUX\.clk1
*19 CLKMUX\.clk2
*20 CLKMUX\.clk3
*21 CLKMUX\.clko
*22 CLKMUX\.clko1
*23 CLKMUX\.m1\.Q1a
*24 CLKMUX\.m1\.Q1b
*25 CLKMUX\.m1\.Q2a
*26 CLKMUX\.m1\.Q2b
*27 CLKMUX\.m1\.q1a_in
*28 CLKMUX\.m1\.q2a_in
*29 CLKMUX\.m2\.Q1a
*30 CLKMUX\.m2\.Q1b
*31 CLKMUX\.m2\.Q2a
*32 CLKMUX\.m2\.Q2b
*33 CLKMUX\.m2\.q1a_in
*34 CLKMUX\.m2\.q2a_in
*35 CLKMUX\.m3\.Q1a
*36 CLKMUX\.m3\.Q1b
*37 CLKMUX\.m3\.Q2a
*38 CLKMUX\.m3\.Q2b
*39 CLKMUX\.m3\.q1a_in
*40 CLKMUX\.m3\.q2a_in
*41 CLKMUX0\.Q1a
*42 CLKMUX0\.Q1b
*43 CLKMUX0\.Q2a
*44 CLKMUX0\.Q2b
*45 CLKMUX0\.q1a_in
*46 CLKMUX0\.q2a_in
*47 CLKMUX1\.Q1a
*48 CLKMUX1\.Q1b
*49 CLKMUX1\.Q2a
*50 CLKMUX1\.Q2b
*51 CLKMUX1\.clk1
*52 CLKMUX1\.q1a_in
*53 CLKMUX1\.q2a_in
*54 CLKMUX2\.Q1a
*55 CLKMUX2\.Q1b
*56 CLKMUX2\.Q2a
*57 CLKMUX2\.Q2b
*58 CLKMUX2\.q1a_in
*59 CLKMUX2\.q2a_in
*60 PoR\.CLKMUX\.clk0
*61 PoR\.CLKMUX\.m1\.Q1a
*62 PoR\.CLKMUX\.m1\.Q1b
*63 PoR\.CLKMUX\.m1\.Q2a
*64 PoR\.CLKMUX\.m1\.Q2b
*65 PoR\.CLKMUX\.m1\.q1a_in
*66 PoR\.CLKMUX\.m1\.q2a_in
*67 PoR\.CLKMUX\.m2\.Q1a
*68 PoR\.CLKMUX\.m2\.Q1b
*69 PoR\.CLKMUX\.m2\.Q2a
*70 PoR\.CLKMUX\.m2\.Q2b
*71 PoR\.CLKMUX\.m2\.q1a_in
*72 PoR\.CLKMUX\.m2\.q2a_in
*73 PoR\.CLKMUX\.m3\.Q1a
*74 PoR\.CLKMUX\.m3\.Q1b
*75 PoR\.CLKMUX\.m3\.Q2a
*76 PoR\.CLKMUX\.m3\.Q2b
*77 PoR\.CLKMUX\.m3\.q1a_in
*78 PoR\.CLKMUX\.m3\.q2a_in
*79 PoR\.ROSC_DLYINV_0\.Y
*80 PoR\.ROSC_DLYINV_0\.clkinv_out
*81 PoR\.ROSC_DLYINV_1\.Y
*82 PoR\.ROSC_DLYINV_1\.clkinv_out
*83 PoR\.ROSC_DLYINV_2\.Y
*84 PoR\.ROSC_DLYINV_2\.clkinv_out
*85 PoR\.ROSC_DLYINV_3\.Y
*86 PoR\.ROSC_DLYINV_3\.clkinv_out
*87 PoR\.ROSC_DLYINV_4\.Y
*88 PoR\.ROSC_DLYINV_4\.clkinv_out
*89 PoR\.ROSC_DLYINV_5\.Y
*90 PoR\.ROSC_DLYINV_5\.clkinv_out
*91 PoR\.clk_div\[1\]
*92 PoR\.clk_div\[2\]
*93 PoR\.clk_div\[3\]
*94 PoR\.clk_div\[4\]
*95 PoR\.clk_div\[5\]
*96 PoR\.clk_div\[6\]
*97 PoR\.clk_div\[7\]
*98 PoR\.clk_div\[8\]
*99 PoR\.cmp0
*100 PoR\.cmp1
*101 PoR\.cmp2
*102 PoR\.cmp3
*103 PoR\.dly\[7\]
*104 PoR\.dly\[8\]
*105 PoR\.shift_reg0\[0\]
*106 PoR\.shift_reg0\[10\]
*107 PoR\.shift_reg0\[11\]
*108 PoR\.shift_reg0\[12\]
*109 PoR\.shift_reg0\[13\]
*110 PoR\.shift_reg0\[14\]
*111 PoR\.shift_reg0\[15\]
*112 PoR\.shift_reg0\[1\]
*113 PoR\.shift_reg0\[2\]
*114 PoR\.shift_reg0\[3\]
*115 PoR\.shift_reg0\[4\]
*116 PoR\.shift_reg0\[5\]
*117 PoR\.shift_reg0\[6\]
*118 PoR\.shift_reg0\[7\]
*119 PoR\.shift_reg0\[8\]
*120 PoR\.shift_reg0\[9\]
*121 PoR\.shift_reg1\[0\]
*122 PoR\.shift_reg1\[10\]
*123 PoR\.shift_reg1\[11\]
*124 PoR\.shift_reg1\[12\]
*125 PoR\.shift_reg1\[13\]
*126 PoR\.shift_reg1\[14\]
*127 PoR\.shift_reg1\[15\]
*128 PoR\.shift_reg1\[1\]
*129 PoR\.shift_reg1\[2\]
*130 PoR\.shift_reg1\[3\]
*131 PoR\.shift_reg1\[4\]
*132 PoR\.shift_reg1\[5\]
*133 PoR\.shift_reg1\[6\]
*134 PoR\.shift_reg1\[7\]
*135 PoR\.shift_reg1\[8\]
*136 PoR\.shift_reg1\[9\]
*137 PoR\.shift_reg2\[0\]
*138 PoR\.shift_reg2\[10\]
*139 PoR\.shift_reg2\[11\]
*140 PoR\.shift_reg2\[12\]
*141 PoR\.shift_reg2\[13\]
*142 PoR\.shift_reg2\[14\]
*143 PoR\.shift_reg2\[15\]
*144 PoR\.shift_reg2\[1\]
*145 PoR\.shift_reg2\[2\]
*146 PoR\.shift_reg2\[3\]
*147 PoR\.shift_reg2\[4\]
*148 PoR\.shift_reg2\[5\]
*149 PoR\.shift_reg2\[6\]
*150 PoR\.shift_reg2\[7\]
*151 PoR\.shift_reg2\[8\]
*152 PoR\.shift_reg2\[9\]
*153 PoR\.shift_reg3\[0\]
*154 PoR\.shift_reg3\[10\]
*155 PoR\.shift_reg3\[11\]
*156 PoR\.shift_reg3\[12\]
*157 PoR\.shift_reg3\[13\]
*158 PoR\.shift_reg3\[14\]
*159 PoR\.shift_reg3\[15\]
*160 PoR\.shift_reg3\[1\]
*161 PoR\.shift_reg3\[2\]
*162 PoR\.shift_reg3\[3\]
*163 PoR\.shift_reg3\[4\]
*164 PoR\.shift_reg3\[5\]
*165 PoR\.shift_reg3\[6\]
*166 PoR\.shift_reg3\[7\]
*167 PoR\.shift_reg3\[8\]
*168 PoR\.shift_reg3\[9\]
*169 RST_SYNC\.rst_sync\[0\]
*170 RST_SYNC\.rst_sync\[1\]
*171 RST_SYNC\.rst_sync\[2\]
*172 _000_
*173 _001_
*174 _002_
*175 _003_
*176 _004_
*177 _005_
*178 _006_
*179 _007_
*180 _008_
*181 _009_
*182 _010_
*183 _011_
*184 _012_
*185 _013_
*186 _014_
*187 _015_
*188 _016_
*189 _017_
*190 _018_
*191 _019_
*192 _020_
*193 _021_
*194 _022_
*195 _023_
*196 _024_
*197 _025_
*198 _026_
*199 _027_
*200 _028_
*201 _029_
*202 _030_
*203 _031_
*204 _032_
*205 _033_
*206 _034_
*207 _035_
*208 _036_
*209 _037_
*210 _038_
*211 _039_
*212 _040_
*213 _041_
*214 _042_
*215 _043_
*216 _044_
*217 _045_
*218 _046_
*219 _047_
*220 _048_
*221 _049_
*222 _050_
*223 _051_
*224 _052_
*225 _053_
*226 _054_
*227 _055_
*228 _056_
*229 _057_
*230 _058_
*231 _059_
*232 _060_
*233 _061_
*234 _062_
*235 _063_
*236 _064_
*237 _065_
*238 _066_
*239 _067_
*240 _068_
*241 _069_
*242 _070_
*243 _071_
*244 _072_
*245 _073_
*246 _074_
*247 _075_
*248 _076_
*249 _077_
*250 _078_
*251 _079_
*252 _080_
*253 _081_
*254 _082_
*255 _083_
*256 _084_
*257 _085_
*258 _086_
*259 _087_
*260 _088_
*261 _089_
*262 _090_
*263 _091_
*264 _092_
*265 _093_
*266 _094_
*267 _095_
*268 _096_
*269 _097_
*270 _098_
*271 _099_
*272 _100_
*273 _101_
*274 _102_
*275 _103_
*276 _104_
*277 _105_
*278 _106_
*279 _107_
*280 _108_
*281 _109_
*282 _110_
*283 _111_
*284 _112_
*285 _113_
*286 _114_
*287 _115_
*288 _116_
*289 _117_
*290 _118_
*291 _119_
*292 _120_
*293 _121_
*294 en_xclk_cntr
*295 mon_cntr\[0\]
*296 mon_cntr\[1\]
*297 mon_cntr\[2\]
*298 mon_cntr\[3\]
*299 mon_cntr\[4\]
*300 mon_cntr\[5\]
*301 mon_cntr\[6\]
*302 mon_cntr\[7\]
*303 net1
*304 net10
*305 net11
*306 net12
*307 net13
*308 net14
*309 net15
*310 net16
*311 net18
*312 net19
*313 net2
*314 net20
*315 net3
*316 net4
*317 net5
*318 net6
*319 net7
*320 net8
*321 net9
*322 xclk_cntr\[0\]
*323 xclk_cntr\[1\]
*324 xclk_cntr\[2\]
*325 xclk_cntr\[3\]
*326 xclk_cntr\[4\]
*327 xclk_cntr\[5\]
*328 xclk_cntr\[6\]
*329 xclk_cntr\[7\]
*330 xclk_cntr\[8\]
*331 xclk_mon_rst_n
*332 xclk_sync\[0\]
*333 xclk_sync\[1\]
*334 xclk_sync\[2\]
*335 ANTENNA__130__A1
*336 ANTENNA__261__A
*337 ANTENNA__268__CLK
*338 ANTENNA__269__CLK
*339 ANTENNA__270__CLK
*340 ANTENNA__271__CLK
*341 ANTENNA__272__CLK
*342 ANTENNA__273__CLK
*343 ANTENNA__274__CLK
*344 ANTENNA__275__CLK
*345 ANTENNA__276__CLK
*346 ANTENNA__277__CLK
*347 ANTENNA__278__CLK
*348 ANTENNA__279__CLK
*349 ANTENNA__280__CLK
*350 ANTENNA__281__CLK
*351 ANTENNA__282__CLK
*352 ANTENNA__283__CLK
*353 ANTENNA__284__CLK
*354 ANTENNA__285__CLK
*355 ANTENNA__286__CLK
*356 ANTENNA__287__CLK
*357 ANTENNA__288__CLK
*358 ANTENNA__289__CLK
*359 ANTENNA__312__CLK
*360 ANTENNA__324__CLK
*361 ANTENNA__325__CLK
*362 ANTENNA__326__CLK
*363 ANTENNA__327__CLK
*364 ANTENNA__328__CLK
*365 ANTENNA__329__CLK
*366 ANTENNA__330__CLK
*367 ANTENNA__331__CLK
*368 FILLER_0_0_109
*369 FILLER_0_0_113
*370 FILLER_0_0_117
*371 FILLER_0_0_129
*372 FILLER_0_0_137
*373 FILLER_0_0_141
*374 FILLER_0_0_15
*375 FILLER_0_0_153
*376 FILLER_0_0_169
*377 FILLER_0_0_27
*378 FILLER_0_0_29
*379 FILLER_0_0_3
*380 FILLER_0_0_37
*381 FILLER_0_0_42
*382 FILLER_0_0_54
*383 FILLER_0_0_57
*384 FILLER_0_0_65
*385 FILLER_0_0_69
*386 FILLER_0_0_81
*387 FILLER_0_0_85
*388 FILLER_0_0_89
*389 FILLER_0_0_92
*390 FILLER_0_0_97
*391 FILLER_0_10_107
*392 FILLER_0_10_111
*393 FILLER_0_10_115
*394 FILLER_0_10_127
*395 FILLER_0_10_16
*396 FILLER_0_10_162
*397 FILLER_0_10_170
*398 FILLER_0_10_26
*399 FILLER_0_10_3
*400 FILLER_0_10_35
*401 FILLER_0_10_47
*402 FILLER_0_10_59
*403 FILLER_0_10_80
*404 FILLER_0_10_85
*405 FILLER_0_11_105
*406 FILLER_0_11_13
*407 FILLER_0_11_138
*408 FILLER_0_11_169
*409 FILLER_0_11_3
*410 FILLER_0_11_45
*411 FILLER_0_11_54
*412 FILLER_0_11_66
*413 FILLER_0_11_72
*414 FILLER_0_11_93
*415 FILLER_0_12_105
*416 FILLER_0_12_113
*417 FILLER_0_12_125
*418 FILLER_0_12_13
*419 FILLER_0_12_131
*420 FILLER_0_12_164
*421 FILLER_0_12_170
*422 FILLER_0_12_25
*423 FILLER_0_12_29
*424 FILLER_0_12_3
*425 FILLER_0_12_35
*426 FILLER_0_12_67
*427 FILLER_0_12_74
*428 FILLER_0_12_82
*429 FILLER_0_12_85
*430 FILLER_0_12_89
*431 FILLER_0_12_9
*432 FILLER_0_12_93
*433 FILLER_0_13_11
*434 FILLER_0_13_111
*435 FILLER_0_13_113
*436 FILLER_0_13_118
*437 FILLER_0_13_126
*438 FILLER_0_13_157
*439 FILLER_0_13_165
*440 FILLER_0_13_169
*441 FILLER_0_13_17
*442 FILLER_0_13_3
*443 FILLER_0_13_38
*444 FILLER_0_13_43
*445 FILLER_0_13_55
*446 FILLER_0_13_57
*447 FILLER_0_13_69
*448 FILLER_0_13_7
*449 FILLER_0_14_116
*450 FILLER_0_14_138
*451 FILLER_0_14_147
*452 FILLER_0_14_29
*453 FILLER_0_14_3
*454 FILLER_0_14_40
*455 FILLER_0_14_51
*456 FILLER_0_14_73
*457 FILLER_0_14_81
*458 FILLER_0_14_85
*459 FILLER_0_14_97
*460 FILLER_0_15_111
*461 FILLER_0_15_113
*462 FILLER_0_15_125
*463 FILLER_0_15_144
*464 FILLER_0_15_148
*465 FILLER_0_15_157
*466 FILLER_0_15_165
*467 FILLER_0_15_169
*468 FILLER_0_15_17
*469 FILLER_0_15_26
*470 FILLER_0_15_38
*471 FILLER_0_15_62
*472 FILLER_0_15_70
*473 FILLER_0_15_75
*474 FILLER_0_15_9
*475 FILLER_0_15_96
*476 FILLER_0_16_13
*477 FILLER_0_16_138
*478 FILLER_0_16_141
*479 FILLER_0_16_149
*480 FILLER_0_16_157
*481 FILLER_0_16_169
*482 FILLER_0_16_17
*483 FILLER_0_16_25
*484 FILLER_0_16_29
*485 FILLER_0_16_3
*486 FILLER_0_16_40
*487 FILLER_0_16_48
*488 FILLER_0_16_59
*489 FILLER_0_16_83
*490 FILLER_0_16_85
*491 FILLER_0_16_9
*492 FILLER_0_16_93
*493 FILLER_0_17_103
*494 FILLER_0_17_109
*495 FILLER_0_17_113
*496 FILLER_0_17_121
*497 FILLER_0_17_146
*498 FILLER_0_17_169
*499 FILLER_0_17_18
*500 FILLER_0_17_3
*501 FILLER_0_17_47
*502 FILLER_0_17_55
*503 FILLER_0_17_57
*504 FILLER_0_17_63
*505 FILLER_0_17_67
*506 FILLER_0_17_75
*507 FILLER_0_17_87
*508 FILLER_0_17_95
*509 FILLER_0_18_101
*510 FILLER_0_18_125
*511 FILLER_0_18_138
*512 FILLER_0_18_165
*513 FILLER_0_18_29
*514 FILLER_0_18_3
*515 FILLER_0_18_37
*516 FILLER_0_18_55
*517 FILLER_0_18_59
*518 FILLER_0_18_63
*519 FILLER_0_18_7
*520 FILLER_0_18_75
*521 FILLER_0_18_83
*522 FILLER_0_18_85
*523 FILLER_0_18_97
*524 FILLER_0_19_108
*525 FILLER_0_19_133
*526 FILLER_0_19_141
*527 FILLER_0_19_145
*528 FILLER_0_19_15
*529 FILLER_0_19_151
*530 FILLER_0_19_157
*531 FILLER_0_19_169
*532 FILLER_0_19_23
*533 FILLER_0_19_3
*534 FILLER_0_19_35
*535 FILLER_0_19_39
*536 FILLER_0_19_43
*537 FILLER_0_19_52
*538 FILLER_0_19_57
*539 FILLER_0_19_64
*540 FILLER_0_19_9
*541 FILLER_0_1_133
*542 FILLER_0_1_140
*543 FILLER_0_1_161
*544 FILLER_0_1_167
*545 FILLER_0_1_169
*546 FILLER_0_1_19
*547 FILLER_0_1_27
*548 FILLER_0_1_3
*549 FILLER_0_1_39
*550 FILLER_0_1_51
*551 FILLER_0_20_107
*552 FILLER_0_20_12
*553 FILLER_0_20_139
*554 FILLER_0_20_141
*555 FILLER_0_20_150
*556 FILLER_0_20_159
*557 FILLER_0_20_29
*558 FILLER_0_20_3
*559 FILLER_0_20_41
*560 FILLER_0_20_53
*561 FILLER_0_20_76
*562 FILLER_0_20_85
*563 FILLER_0_21_100
*564 FILLER_0_21_113
*565 FILLER_0_21_125
*566 FILLER_0_21_132
*567 FILLER_0_21_162
*568 FILLER_0_21_169
*569 FILLER_0_21_21
*570 FILLER_0_21_52
*571 FILLER_0_21_57
*572 FILLER_0_21_69
*573 FILLER_0_21_75
*574 FILLER_0_21_87
*575 FILLER_0_21_95
*576 FILLER_0_22_105
*577 FILLER_0_22_11
*578 FILLER_0_22_113
*579 FILLER_0_22_141
*580 FILLER_0_22_149
*581 FILLER_0_22_23
*582 FILLER_0_22_27
*583 FILLER_0_22_29
*584 FILLER_0_22_3
*585 FILLER_0_22_39
*586 FILLER_0_22_51
*587 FILLER_0_22_7
*588 FILLER_0_22_82
*589 FILLER_0_23_139
*590 FILLER_0_23_151
*591 FILLER_0_23_16
*592 FILLER_0_23_160
*593 FILLER_0_23_169
*594 FILLER_0_23_3
*595 FILLER_0_23_38
*596 FILLER_0_23_43
*597 FILLER_0_23_49
*598 FILLER_0_23_53
*599 FILLER_0_23_57
*600 FILLER_0_23_83
*601 FILLER_0_24_110
*602 FILLER_0_24_113
*603 FILLER_0_24_125
*604 FILLER_0_24_137
*605 FILLER_0_24_141
*606 FILLER_0_24_164
*607 FILLER_0_24_170
*608 FILLER_0_24_27
*609 FILLER_0_24_29
*610 FILLER_0_24_3
*611 FILLER_0_24_37
*612 FILLER_0_24_68
*613 FILLER_0_24_76
*614 FILLER_0_24_94
*615 FILLER_0_24_98
*616 FILLER_0_25_108
*617 FILLER_0_25_113
*618 FILLER_0_25_121
*619 FILLER_0_25_13
*620 FILLER_0_25_131
*621 FILLER_0_25_152
*622 FILLER_0_25_164
*623 FILLER_0_25_169
*624 FILLER_0_25_20
*625 FILLER_0_25_32
*626 FILLER_0_25_44
*627 FILLER_0_25_53
*628 FILLER_0_25_60
*629 FILLER_0_25_72
*630 FILLER_0_25_84
*631 FILLER_0_25_96
*632 FILLER_0_26_100
*633 FILLER_0_26_108
*634 FILLER_0_26_114
*635 FILLER_0_26_12
*636 FILLER_0_26_138
*637 FILLER_0_26_141
*638 FILLER_0_26_145
*639 FILLER_0_26_157
*640 FILLER_0_26_169
*641 FILLER_0_26_22
*642 FILLER_0_26_3
*643 FILLER_0_26_53
*644 FILLER_0_26_65
*645 FILLER_0_26_77
*646 FILLER_0_26_83
*647 FILLER_0_26_88
*648 FILLER_0_27_105
*649 FILLER_0_27_12
*650 FILLER_0_27_139
*651 FILLER_0_27_151
*652 FILLER_0_27_163
*653 FILLER_0_27_167
*654 FILLER_0_27_169
*655 FILLER_0_27_34
*656 FILLER_0_27_46
*657 FILLER_0_27_60
*658 FILLER_0_27_72
*659 FILLER_0_27_79
*660 FILLER_0_27_91
*661 FILLER_0_27_98
*662 FILLER_0_28_109
*663 FILLER_0_28_113
*664 FILLER_0_28_125
*665 FILLER_0_28_137
*666 FILLER_0_28_141
*667 FILLER_0_28_153
*668 FILLER_0_28_167
*669 FILLER_0_28_169
*670 FILLER_0_28_20
*671 FILLER_0_28_29
*672 FILLER_0_28_41
*673 FILLER_0_28_53
*674 FILLER_0_28_57
*675 FILLER_0_28_69
*676 FILLER_0_28_81
*677 FILLER_0_28_85
*678 FILLER_0_28_9
*679 FILLER_0_28_97
*680 FILLER_0_2_105
*681 FILLER_0_2_116
*682 FILLER_0_2_120
*683 FILLER_0_2_13
*684 FILLER_0_2_139
*685 FILLER_0_2_148
*686 FILLER_0_2_160
*687 FILLER_0_2_168
*688 FILLER_0_2_25
*689 FILLER_0_2_29
*690 FILLER_0_2_3
*691 FILLER_0_2_37
*692 FILLER_0_2_60
*693 FILLER_0_2_68
*694 FILLER_0_2_85
*695 FILLER_0_2_9
*696 FILLER_0_2_97
*697 FILLER_0_3_103
*698 FILLER_0_3_109
*699 FILLER_0_3_113
*700 FILLER_0_3_128
*701 FILLER_0_3_169
*702 FILLER_0_3_19
*703 FILLER_0_3_3
*704 FILLER_0_3_34
*705 FILLER_0_3_46
*706 FILLER_0_3_60
*707 FILLER_0_3_65
*708 FILLER_0_3_83
*709 FILLER_0_3_9
*710 FILLER_0_3_95
*711 FILLER_0_4_136
*712 FILLER_0_4_146
*713 FILLER_0_4_15
*714 FILLER_0_4_150
*715 FILLER_0_4_162
*716 FILLER_0_4_170
*717 FILLER_0_4_27
*718 FILLER_0_4_29
*719 FILLER_0_4_3
*720 FILLER_0_4_35
*721 FILLER_0_4_62
*722 FILLER_0_4_81
*723 FILLER_0_4_85
*724 FILLER_0_5_105
*725 FILLER_0_5_120
*726 FILLER_0_5_126
*727 FILLER_0_5_134
*728 FILLER_0_5_152
*729 FILLER_0_5_164
*730 FILLER_0_5_169
*731 FILLER_0_5_18
*732 FILLER_0_5_42
*733 FILLER_0_5_53
*734 FILLER_0_5_57
*735 FILLER_0_5_6
*736 FILLER_0_5_63
*737 FILLER_0_5_93
*738 FILLER_0_6_118
*739 FILLER_0_6_129
*740 FILLER_0_6_13
*741 FILLER_0_6_137
*742 FILLER_0_6_170
*743 FILLER_0_6_29
*744 FILLER_0_6_3
*745 FILLER_0_6_42
*746 FILLER_0_6_46
*747 FILLER_0_6_58
*748 FILLER_0_6_70
*749 FILLER_0_6_73
*750 FILLER_0_6_81
*751 FILLER_0_6_85
*752 FILLER_0_7_102
*753 FILLER_0_7_106
*754 FILLER_0_7_113
*755 FILLER_0_7_117
*756 FILLER_0_7_121
*757 FILLER_0_7_133
*758 FILLER_0_7_159
*759 FILLER_0_7_167
*760 FILLER_0_7_169
*761 FILLER_0_7_3
*762 FILLER_0_7_35
*763 FILLER_0_7_55
*764 FILLER_0_7_57
*765 FILLER_0_7_65
*766 FILLER_0_7_84
*767 FILLER_0_7_98
*768 FILLER_0_8_129
*769 FILLER_0_8_137
*770 FILLER_0_8_141
*771 FILLER_0_8_15
*772 FILLER_0_8_153
*773 FILLER_0_8_165
*774 FILLER_0_8_27
*775 FILLER_0_8_29
*776 FILLER_0_8_3
*777 FILLER_0_8_41
*778 FILLER_0_8_47
*779 FILLER_0_8_77
*780 FILLER_0_8_83
*781 FILLER_0_9_109
*782 FILLER_0_9_113
*783 FILLER_0_9_144
*784 FILLER_0_9_15
*785 FILLER_0_9_169
*786 FILLER_0_9_19
*787 FILLER_0_9_28
*788 FILLER_0_9_3
*789 FILLER_0_9_53
*790 FILLER_0_9_57
*791 FILLER_0_9_69
*792 FILLER_0_9_81
*793 FILLER_0_9_97
*794 MS_CLK_RST_17
*795 PHY_EDGE_ROW_0_Left_29
*796 PHY_EDGE_ROW_0_Right_0
*797 PHY_EDGE_ROW_10_Left_39
*798 PHY_EDGE_ROW_10_Right_10
*799 PHY_EDGE_ROW_11_Left_40
*800 PHY_EDGE_ROW_11_Right_11
*801 PHY_EDGE_ROW_12_Left_41
*802 PHY_EDGE_ROW_12_Right_12
*803 PHY_EDGE_ROW_13_Left_42
*804 PHY_EDGE_ROW_13_Right_13
*805 PHY_EDGE_ROW_14_Left_43
*806 PHY_EDGE_ROW_14_Right_14
*807 PHY_EDGE_ROW_15_Left_44
*808 PHY_EDGE_ROW_15_Right_15
*809 PHY_EDGE_ROW_16_Left_45
*810 PHY_EDGE_ROW_16_Right_16
*811 PHY_EDGE_ROW_17_Left_46
*812 PHY_EDGE_ROW_17_Right_17
*813 PHY_EDGE_ROW_18_Left_47
*814 PHY_EDGE_ROW_18_Right_18
*815 PHY_EDGE_ROW_19_Left_48
*816 PHY_EDGE_ROW_19_Right_19
*817 PHY_EDGE_ROW_1_Left_30
*818 PHY_EDGE_ROW_1_Right_1
*819 PHY_EDGE_ROW_20_Left_49
*820 PHY_EDGE_ROW_20_Right_20
*821 PHY_EDGE_ROW_21_Left_50
*822 PHY_EDGE_ROW_21_Right_21
*823 PHY_EDGE_ROW_22_Left_51
*824 PHY_EDGE_ROW_22_Right_22
*825 PHY_EDGE_ROW_23_Left_52
*826 PHY_EDGE_ROW_23_Right_23
*827 PHY_EDGE_ROW_24_Left_53
*828 PHY_EDGE_ROW_24_Right_24
*829 PHY_EDGE_ROW_25_Left_54
*830 PHY_EDGE_ROW_25_Right_25
*831 PHY_EDGE_ROW_26_Left_55
*832 PHY_EDGE_ROW_26_Right_26
*833 PHY_EDGE_ROW_27_Left_56
*834 PHY_EDGE_ROW_27_Right_27
*835 PHY_EDGE_ROW_28_Left_57
*836 PHY_EDGE_ROW_28_Right_28
*837 PHY_EDGE_ROW_2_Left_31
*838 PHY_EDGE_ROW_2_Right_2
*839 PHY_EDGE_ROW_3_Left_32
*840 PHY_EDGE_ROW_3_Right_3
*841 PHY_EDGE_ROW_4_Left_33
*842 PHY_EDGE_ROW_4_Right_4
*843 PHY_EDGE_ROW_5_Left_34
*844 PHY_EDGE_ROW_5_Right_5
*845 PHY_EDGE_ROW_6_Left_35
*846 PHY_EDGE_ROW_6_Right_6
*847 PHY_EDGE_ROW_7_Left_36
*848 PHY_EDGE_ROW_7_Right_7
*849 PHY_EDGE_ROW_8_Left_37
*850 PHY_EDGE_ROW_8_Right_8
*851 PHY_EDGE_ROW_9_Left_38
*852 PHY_EDGE_ROW_9_Right_9
*853 PoR\.ROSC_CLKBUF_0
*854 PoR\.ROSC_CLKBUF_1
*855 PoR\.ROSC_DLYBUF_6
*856 PoR\.ROSC_DLYINV_0\.clkdlybuf
*857 PoR\.ROSC_DLYINV_0\.clkinv
*858 PoR\.ROSC_DLYINV_1\.clkdlybuf
*859 PoR\.ROSC_DLYINV_1\.clkinv
*860 PoR\.ROSC_DLYINV_2\.clkdlybuf
*861 PoR\.ROSC_DLYINV_2\.clkinv
*862 PoR\.ROSC_DLYINV_3\.clkdlybuf
*863 PoR\.ROSC_DLYINV_3\.clkinv
*864 PoR\.ROSC_DLYINV_4\.clkdlybuf
*865 PoR\.ROSC_DLYINV_4\.clkinv
*866 PoR\.ROSC_DLYINV_5\.clkdlybuf
*867 PoR\.ROSC_DLYINV_5\.clkinv
*868 PoR\.ROSC_DLYINV_7
*869 TAP_TAPCELL_ROW_0_58
*870 TAP_TAPCELL_ROW_0_59
*871 TAP_TAPCELL_ROW_0_60
*872 TAP_TAPCELL_ROW_0_61
*873 TAP_TAPCELL_ROW_0_62
*874 TAP_TAPCELL_ROW_0_63
*875 TAP_TAPCELL_ROW_10_91
*876 TAP_TAPCELL_ROW_10_92
*877 TAP_TAPCELL_ROW_10_93
*878 TAP_TAPCELL_ROW_11_94
*879 TAP_TAPCELL_ROW_11_95
*880 TAP_TAPCELL_ROW_11_96
*881 TAP_TAPCELL_ROW_12_97
*882 TAP_TAPCELL_ROW_12_98
*883 TAP_TAPCELL_ROW_12_99
*884 TAP_TAPCELL_ROW_13_100
*885 TAP_TAPCELL_ROW_13_101
*886 TAP_TAPCELL_ROW_13_102
*887 TAP_TAPCELL_ROW_14_103
*888 TAP_TAPCELL_ROW_14_104
*889 TAP_TAPCELL_ROW_14_105
*890 TAP_TAPCELL_ROW_15_106
*891 TAP_TAPCELL_ROW_15_107
*892 TAP_TAPCELL_ROW_15_108
*893 TAP_TAPCELL_ROW_16_109
*894 TAP_TAPCELL_ROW_16_110
*895 TAP_TAPCELL_ROW_16_111
*896 TAP_TAPCELL_ROW_17_112
*897 TAP_TAPCELL_ROW_17_113
*898 TAP_TAPCELL_ROW_17_114
*899 TAP_TAPCELL_ROW_18_115
*900 TAP_TAPCELL_ROW_18_116
*901 TAP_TAPCELL_ROW_18_117
*902 TAP_TAPCELL_ROW_19_118
*903 TAP_TAPCELL_ROW_19_119
*904 TAP_TAPCELL_ROW_19_120
*905 TAP_TAPCELL_ROW_1_64
*906 TAP_TAPCELL_ROW_1_65
*907 TAP_TAPCELL_ROW_1_66
*908 TAP_TAPCELL_ROW_20_121
*909 TAP_TAPCELL_ROW_20_122
*910 TAP_TAPCELL_ROW_20_123
*911 TAP_TAPCELL_ROW_21_124
*912 TAP_TAPCELL_ROW_21_125
*913 TAP_TAPCELL_ROW_21_126
*914 TAP_TAPCELL_ROW_22_127
*915 TAP_TAPCELL_ROW_22_128
*916 TAP_TAPCELL_ROW_22_129
*917 TAP_TAPCELL_ROW_23_130
*918 TAP_TAPCELL_ROW_23_131
*919 TAP_TAPCELL_ROW_23_132
*920 TAP_TAPCELL_ROW_24_133
*921 TAP_TAPCELL_ROW_24_134
*922 TAP_TAPCELL_ROW_24_135
*923 TAP_TAPCELL_ROW_25_136
*924 TAP_TAPCELL_ROW_25_137
*925 TAP_TAPCELL_ROW_25_138
*926 TAP_TAPCELL_ROW_26_139
*927 TAP_TAPCELL_ROW_26_140
*928 TAP_TAPCELL_ROW_26_141
*929 TAP_TAPCELL_ROW_27_142
*930 TAP_TAPCELL_ROW_27_143
*931 TAP_TAPCELL_ROW_27_144
*932 TAP_TAPCELL_ROW_28_145
*933 TAP_TAPCELL_ROW_28_146
*934 TAP_TAPCELL_ROW_28_147
*935 TAP_TAPCELL_ROW_28_148
*936 TAP_TAPCELL_ROW_28_149
*937 TAP_TAPCELL_ROW_28_150
*938 TAP_TAPCELL_ROW_2_67
*939 TAP_TAPCELL_ROW_2_68
*940 TAP_TAPCELL_ROW_2_69
*941 TAP_TAPCELL_ROW_3_70
*942 TAP_TAPCELL_ROW_3_71
*943 TAP_TAPCELL_ROW_3_72
*944 TAP_TAPCELL_ROW_4_73
*945 TAP_TAPCELL_ROW_4_74
*946 TAP_TAPCELL_ROW_4_75
*947 TAP_TAPCELL_ROW_5_76
*948 TAP_TAPCELL_ROW_5_77
*949 TAP_TAPCELL_ROW_5_78
*950 TAP_TAPCELL_ROW_6_79
*951 TAP_TAPCELL_ROW_6_80
*952 TAP_TAPCELL_ROW_6_81
*953 TAP_TAPCELL_ROW_7_82
*954 TAP_TAPCELL_ROW_7_83
*955 TAP_TAPCELL_ROW_7_84
*956 TAP_TAPCELL_ROW_8_85
*957 TAP_TAPCELL_ROW_8_86
*958 TAP_TAPCELL_ROW_8_87
*959 TAP_TAPCELL_ROW_9_88
*960 TAP_TAPCELL_ROW_9_89
*961 TAP_TAPCELL_ROW_9_90
*962 _123_
*963 _124_
*964 _125_
*965 _126_
*966 _127_
*967 _128_
*968 _129_
*969 _130_
*970 _131_
*971 _132_
*972 _133_
*973 _134_
*974 _135_
*975 _136_
*976 _137_
*977 _138_
*978 _139_
*979 _140_
*980 _141_
*981 _142_
*982 _143_
*983 _144_
*984 _145_
*985 _146_
*986 _147_
*987 _148_
*988 _149_
*989 _150_
*990 _151_
*991 _152_
*992 _153_
*993 _154_
*994 _155_
*995 _156_
*996 _157_
*997 _158_
*998 _159_
*999 _160_
*1000 _161_
*1001 _162_
*1002 _163_
*1003 _164_
*1004 _165_
*1005 _166_
*1006 _167_
*1007 _168_
*1008 _169_
*1009 _170_
*1010 _171_
*1011 _172_
*1012 _173_
*1013 _174_
*1014 _175_
*1015 _176_
*1016 _177_
*1017 _178_
*1018 _179_
*1019 _180_
*1020 _181_
*1021 _182_
*1022 _183_
*1023 _184_
*1024 _185_
*1025 _186_
*1026 _187_
*1027 _188_
*1028 _189_
*1029 _190_
*1030 _191_
*1031 _192_
*1032 _193_
*1033 _194_
*1034 _195_
*1035 _196_
*1036 _197_
*1037 _198_
*1038 _199_
*1039 _200_
*1040 _201_
*1041 _202_
*1042 _203_
*1043 _204_
*1044 _205_
*1045 _206_
*1046 _207_
*1047 _208_
*1048 _209_
*1049 _210_
*1050 _211_
*1051 _212_
*1052 _213_
*1053 _214_
*1054 _215_
*1055 _216_
*1056 _217_
*1057 _218_
*1058 _219_
*1059 _220_
*1060 _221_
*1061 _222_
*1062 _223_
*1063 _224_
*1064 _225_
*1065 _226_
*1066 _227_
*1067 _228_
*1068 _229_
*1069 _230_
*1070 _231_
*1071 _232_
*1072 _233_
*1073 _234_
*1074 _235_
*1075 _236_
*1076 _237_
*1077 _238_
*1078 _239_
*1079 _240_
*1080 _241_
*1081 _242_
*1082 _243_
*1083 _244_
*1084 _245_
*1085 _246_
*1086 _247_
*1087 _248_
*1088 _249_
*1089 _250_
*1090 _251_
*1091 _252_
*1092 _253_
*1093 _254_
*1094 _255_
*1095 _256_
*1096 _257_
*1097 _258_
*1098 _259_
*1099 _260_
*1100 _261_
*1101 _262_
*1102 _263_
*1103 _264_
*1104 _265_
*1105 _266_
*1106 _267_
*1107 _268_
*1108 _269_
*1109 _270_
*1110 _271_
*1111 _272_
*1112 _273_
*1113 _274_
*1114 _275_
*1115 _276_
*1116 _277_
*1117 _278_
*1118 _279_
*1119 _280_
*1120 _281_
*1121 _282_
*1122 _283_
*1123 _284_
*1124 _285_
*1125 _286_
*1126 _287_
*1127 _288_
*1128 _289_
*1129 _290_
*1130 _291_
*1131 _292_
*1132 _293_
*1133 _294_
*1134 _295_
*1135 _296_
*1136 _297_
*1137 _298_
*1138 _299_
*1139 _300_
*1140 _301_
*1141 _302_
*1142 _303_
*1143 _304_
*1144 _305_
*1145 _306_
*1146 _307_
*1147 _308_
*1148 _309_
*1149 _309__16
*1150 _310_
*1151 _311_
*1152 _312_
*1153 _313_
*1154 _314_
*1155 _315_
*1156 _316_
*1157 _317_
*1158 _318_
*1159 _319_
*1160 _320_
*1161 _321_
*1162 _322_
*1163 _323_
*1164 _324_
*1165 _325_
*1166 _326_
*1167 _327_
*1168 _328_
*1169 _329_
*1170 _330_
*1171 _331_
*1172 _332_
*1173 _333_
*1174 _334_
*1175 _335_
*1176 _336_
*1177 _337_
*1178 _338_
*1179 _339_
*1180 _341_
*1181 _342_
*1182 _343_
*1183 _344_
*1184 _345_
*1185 _346_
*1186 _347_
*1187 _348_
*1188 _349_
*1189 _350_
*1190 _351_
*1191 _352_
*1192 _353_
*1193 _354_
*1194 _355_
*1195 _356_
*1196 _357_
*1197 _358_
*1198 _359_
*1199 _360_
*1200 _361_
*1201 _362_
*1202 _363_
*1203 _364_
*1204 _365_
*1205 _366_
*1206 _367_
*1207 _368_
*1208 _369_
*1209 _370_
*1210 _371_
*1211 _372_
*1212 _373_
*1213 _374_
*1214 _375_
*1215 _376_
*1216 _378_
*1217 _379_
*1218 _380_
*1219 _381_
*1220 _382_
*1221 _383_
*1222 _384_
*1223 _385_
*1224 _386_
*1225 _387_
*1226 _388_
*1227 _389_
*1228 _390_
*1229 _391_
*1230 _392_
*1231 _393_
*1232 _394_
*1233 _395_
*1234 _396_
*1235 _397_
*1236 _398_
*1237 _399_
*1238 _400_
*1239 _401_
*1240 _402_
*1241 _403_
*1242 _404_
*1243 _405_
*1244 _406_
*1245 _407_
*1246 _408_
*1247 _409_
*1248 fanout11
*1249 fanout12
*1250 fanout13
*1251 fanout14
*1252 fanout15
*1253 hold1
*1254 hold2
*1255 hold3
*1256 input1
*1257 input2
*1258 input3
*1259 input4
*1260 input5
*1261 input6
*1262 input7
*1263 input8
*1264 output10
*1265 output9

*PORTS
clk O
clk_div[0] I
clk_div[1] I
por_fb_in I
por_fb_out O
por_n O
rst_n O
sel_mux0 I
sel_mux1 I
sel_mux2 I
sel_rosc[0] I
sel_rosc[1] I
xclk0 I
xclk1 I
xrst_n I

*D_NET *1 0.00167883
*CONN
*P clk O
*I *1265:X O *D sky130_fd_sc_hd__buf_1
*CAP
1 clk 0.00049977
2 *1265:X 0.000255955
3 *1:12 0.000755726
4 *1:12 *1023:A 0.000124811
5 *1:12 *247:21 1.01436e-05
6 *1:12 *321:16 3.24239e-05
*RES
1 *1265:X *1:12 49.7804 
2 *1:12 clk 1.35893 
*END

*D_NET *2 0.0090116
*CONN
*P clk_div[0] I
*I *989:B I *D sky130_fd_sc_hd__and2b_1
*I *988:B I *D sky130_fd_sc_hd__nor2_1
*I *991:B I *D sky130_fd_sc_hd__nor2_1
*I *992:B I *D sky130_fd_sc_hd__and2b_1
*CAP
1 clk_div[0] 0.0018516
2 *989:B 0
3 *988:B 0
4 *991:B 0
5 *992:B 0.000268448
6 *2:45 0.000272436
7 *2:37 0.000499271
8 *2:15 0.00124563
9 *2:9 0.00305561
10 *992:B *991:A 0.000173442
11 *992:B *1143:RESET_B 1.22822e-05
12 *992:B *27:6 5.50106e-05
13 *992:B *306:79 0
14 *2:9 *1137:CLK 0
15 *2:9 *1146:RESET_B 0
16 *2:9 *20:10 0
17 *2:9 *60:565 0
18 *2:9 *60:577 8.51329e-05
19 *2:9 *79:8 5.61414e-05
20 *2:9 *81:8 0
21 *2:9 *82:8 0.000141888
22 *2:9 *84:8 0
23 *2:9 *252:14 1.47563e-05
24 *2:9 *309:54 0
25 *2:15 *963:A 0
26 *2:15 *1029:A 0
27 *2:15 *1092:A1 0
28 *2:15 *1141:CLK 0
29 *2:15 *1142:RESET_B 0
30 *2:15 *18:23 0
31 *2:15 *18:45 0
32 *2:15 *20:10 0
33 *2:15 *23:10 0
34 *2:15 *48:27 0
35 *2:15 *199:16 0
36 *2:15 *199:29 0
37 *2:15 *235:8 0
38 *2:15 *252:14 0.000307234
39 *2:15 *253:10 0.00014411
40 *2:15 *254:8 0.000385735
41 *2:15 *306:79 0
42 *2:37 *1033:A 0.000100733
43 *2:37 *230:18 5.97178e-05
44 *2:45 *967:B1 0
45 *2:45 *30:33 0.000132267
46 *2:45 *34:10 0.000111852
47 *2:45 *235:8 3.83059e-05
*RES
1 clk_div[0] *2:9 37.6379 
2 *2:9 *2:15 22.7443 
3 *2:15 *992:B 43.2821 
4 *2:15 *991:B 38 
5 *2:9 *2:37 18.9564 
6 *2:37 *2:45 37.1257 
7 *2:45 *988:B 23 
8 *2:37 *989:B 23 
*END

*D_NET *3 0.0100072
*CONN
*P clk_div[1] I
*I *985:B I *D sky130_fd_sc_hd__nor2_1
*I *986:B I *D sky130_fd_sc_hd__and2b_1
*CAP
1 clk_div[1] 0.00219833
2 *985:B 0
3 *986:B 0
4 *3:33 0.000365986
5 *3:23 0.00141867
6 *3:9 0.00325101
7 *3:9 *1008:A 0
8 *3:9 *1148:CLK 0
9 *3:9 *1151:RESET_B 9.53554e-05
10 *3:9 *1172:CLK 0
11 *3:9 *1252:A 0
12 *3:9 *1255:A 0
13 *3:9 *42:16 4.07627e-05
14 *3:9 *44:12 0.000138718
15 *3:9 *45:8 6.68793e-05
16 *3:9 *60:206 0.000376252
17 *3:9 *60:215 0.00014411
18 *3:9 *60:228 0.000427743
19 *3:9 *94:61 0
20 *3:9 *94:65 0
21 *3:9 *171:8 8.62876e-05
22 *3:9 *217:8 0
23 *3:9 *220:10 0
24 *3:9 *303:10 0
25 *3:9 *305:117 0.000134779
26 *3:9 *314:8 8.1606e-05
27 *3:9 *320:24 5.50955e-05
28 *3:9 *322:10 0.000141869
29 *3:9 *322:16 6.26088e-05
30 *3:23 *983:A1 5.70419e-05
31 *3:23 *985:A 5.90675e-06
32 *3:23 *1174:CLK 5.10686e-05
33 *3:23 *1174:D 0.000140259
34 *3:23 *1252:A 0.000137651
35 *3:23 *38:16 1.82564e-05
36 *3:23 *39:10 5.67058e-05
37 *3:23 *42:16 7.59794e-05
38 *3:23 *43:14 2.93845e-05
39 *3:23 *309:10 0.000162517
40 *3:23 *309:90 1.76557e-05
41 *3:33 *21:10 0
42 *3:33 *21:25 0
43 *3:33 *60:373 0.000168754
*RES
1 clk_div[1] *3:9 48.9064 
2 *3:9 *3:23 33.9536 
3 *3:23 *3:33 35.7586 
4 *3:33 *986:B 23 
5 *3:23 *985:B 23 
*END

*D_NET *4 0.00143299
*CONN
*P por_fb_in I
*I *857:A I *D sky130_fd_sc_hd__clkinv_2
*CAP
1 por_fb_in 0.000716496
2 *857:A 0
3 *4:9 0.000716496
*RES
1 por_fb_in *4:9 30.2043 
2 *4:9 *857:A 23 
*END

*D_NET *5 0.00451819
*CONN
*P por_fb_out O
*I *854:A I *D sky130_fd_sc_hd__clkbuf_8
*I *853:X O *D sky130_fd_sc_hd__clkbuf_8
*CAP
1 por_fb_out 0.00168873
2 *854:A 0
3 *853:X 0.000313106
4 *5:12 0.00175312
5 *5:8 0.0003775
6 *5:8 *60:12 0.000385735
7 *5:8 *178:10 0
*RES
1 *853:X *5:8 45.54 
2 *5:8 *5:12 16.0979 
3 *5:12 por_fb_out 49.9657 
4 *5:12 *854:A 23 
*END

*D_NET *6 0.00063186
*CONN
*P por_n O
*I *794:HI O *D sky130_fd_sc_hd__conb_1
*CAP
1 por_n 8.56082e-05
2 *794:HI 0.000230322
3 *6:10 0.00031593
*RES
1 *794:HI *6:10 42.2568 
2 *6:10 por_n 8.32853 
*END

*D_NET *7 0.000827729
*CONN
*P rst_n O
*I *1264:X O *D sky130_fd_sc_hd__clkbuf_2
*CAP
1 rst_n 0.000413865
2 *1264:X 0.000413865
*RES
1 *1264:X rst_n 47.1143 
*END

*D_NET *8 0.00113026
*CONN
*P sel_mux0 I
*I *1256:A I *D sky130_fd_sc_hd__buf_1
*CAP
1 sel_mux0 0.000565129
2 *1256:A 0
3 *8:13 0.000565129
*RES
1 sel_mux0 *8:13 31.7549 
2 *8:13 *1256:A 23 
*END

*D_NET *9 0.00068665
*CONN
*P sel_mux1 I
*I *1257:A I *D sky130_fd_sc_hd__buf_1
*CAP
1 sel_mux1 0.000343325
2 *1257:A 0
3 *9:13 0.000343325
*RES
1 sel_mux1 *9:13 27.9375 
2 *9:13 *1257:A 23 
*END

*D_NET *10 0.00100428
*CONN
*P sel_mux2 I
*I *1258:A I *D sky130_fd_sc_hd__buf_1
*CAP
1 sel_mux2 0.000452106
2 *1258:A 0
3 *10:15 0.000452106
4 *10:15 *11:13 0.000100069
*RES
1 sel_mux2 *10:15 29.2278 
2 *10:15 *1258:A 23 
*END

*D_NET *11 0.00137108
*CONN
*P sel_rosc[0] I
*I *1259:A I *D sky130_fd_sc_hd__buf_1
*CAP
1 sel_rosc[0] 0.000635507
2 *1259:A 0
3 *11:13 0.000635507
4 *10:15 *11:13 0.000100069
*RES
1 sel_rosc[0] *11:13 28.0293 
2 *11:13 *1259:A 23 
*END

*D_NET *12 0.00085858
*CONN
*P sel_rosc[1] I
*I *1260:A I *D sky130_fd_sc_hd__buf_1
*CAP
1 sel_rosc[1] 0.00042929
2 *1260:A 0.00042929
*RES
1 sel_rosc[1] *1260:A 47.4664 
*END

*D_NET *15 0.00066271
*CONN
*P xclk0 I
*I *1261:A I *D sky130_fd_sc_hd__buf_1
*CAP
1 xclk0 0.000331355
2 *1261:A 0
3 *15:13 0.000331355
4 *15:13 *198:12 0
*RES
1 xclk0 *15:13 27.9375 
2 *15:13 *1261:A 23 
*END

*D_NET *16 0.00142467
*CONN
*P xclk1 I
*I *1262:A I *D sky130_fd_sc_hd__buf_1
*CAP
1 xclk1 0.000712333
2 *1262:A 0
3 *16:11 0.000712333
*RES
1 xclk1 *16:11 30.2664 
2 *16:11 *1262:A 23 
*END

*D_NET *17 0.000570034
*CONN
*P xrst_n I
*I *1263:A I *D sky130_fd_sc_hd__buf_1
*CAP
1 xrst_n 0.000285017
2 *1263:A 0.000285017
*RES
1 xrst_n *1263:A 49.2833 
*END

*D_NET *18 0.00499621
*CONN
*I *1096:A I *D sky130_fd_sc_hd__inv_2
*I *982:A1 I *D sky130_fd_sc_hd__a22o_2
*I *1141:CLK I *D sky130_fd_sc_hd__dfrtp_1
*I *1029:A I *D sky130_fd_sc_hd__nand2_1
*I *1030:A I *D sky130_fd_sc_hd__or2_1
*I *963:A I *D sky130_fd_sc_hd__inv_2
*I *1129:Q O *D sky130_fd_sc_hd__dfxtp_1
*CAP
1 *1096:A 0
2 *982:A1 5.19713e-05
3 *1141:CLK 0.000296532
4 *1029:A 0.000108067
5 *1030:A 6.16349e-05
6 *963:A 5.57218e-05
7 *1129:Q 0
8 *18:73 0.000377103
9 *18:45 0.000660021
10 *18:23 0.000310592
11 *18:10 0.000349073